* NGSPICE file created from calculator_top.ext - technology: sky130A

* Black-box entry subcircuit for sky130_fd_sc_hd__and3_1 abstract view
.subckt sky130_fd_sc_hd__and3_1 A B C VGND VNB VPB VPWR X
.ends

* Black-box entry subcircuit for sky130_fd_sc_hd__fill_1 abstract view
.subckt sky130_fd_sc_hd__fill_1 VGND VNB VPB VPWR
.ends

* Black-box entry subcircuit for sky130_fd_sc_hd__decap_8 abstract view
.subckt sky130_fd_sc_hd__decap_8 VGND VNB VPB VPWR
.ends

* Black-box entry subcircuit for sky130_fd_sc_hd__a22o_1 abstract view
.subckt sky130_fd_sc_hd__a22o_1 A1 A2 B1 B2 VGND VNB VPB VPWR X
.ends

* Black-box entry subcircuit for sky130_fd_sc_hd__decap_4 abstract view
.subckt sky130_fd_sc_hd__decap_4 VGND VNB VPB VPWR
.ends

* Black-box entry subcircuit for sky130_fd_sc_hd__tapvpwrvgnd_1 abstract view
.subckt sky130_fd_sc_hd__tapvpwrvgnd_1 VGND VPWR
.ends

* Black-box entry subcircuit for sky130_ef_sc_hd__decap_12 abstract view
.subckt sky130_ef_sc_hd__decap_12 VPWR VGND VPB VNB
.ends

* Black-box entry subcircuit for sky130_fd_sc_hd__o22a_1 abstract view
.subckt sky130_fd_sc_hd__o22a_1 A1 A2 B1 B2 VGND VNB VPB VPWR X
.ends

* Black-box entry subcircuit for sky130_fd_sc_hd__dfrtp_1 abstract view
.subckt sky130_fd_sc_hd__dfrtp_1 CLK D RESET_B VGND VNB VPB VPWR Q
.ends

* Black-box entry subcircuit for sky130_fd_sc_hd__or2_1 abstract view
.subckt sky130_fd_sc_hd__or2_1 A B VGND VNB VPB VPWR X
.ends

* Black-box entry subcircuit for sky130_fd_sc_hd__dfrtp_2 abstract view
.subckt sky130_fd_sc_hd__dfrtp_2 CLK D RESET_B VGND VNB VPB VPWR Q
.ends

* Black-box entry subcircuit for sky130_fd_sc_hd__xnor2_1 abstract view
.subckt sky130_fd_sc_hd__xnor2_1 A B VGND VNB VPB VPWR Y
.ends

* Black-box entry subcircuit for sky130_fd_sc_hd__buf_2 abstract view
.subckt sky130_fd_sc_hd__buf_2 A VGND VNB VPB VPWR X
.ends

* Black-box entry subcircuit for sky130_fd_sc_hd__clkbuf_4 abstract view
.subckt sky130_fd_sc_hd__clkbuf_4 A VGND VNB VPB VPWR X
.ends

* Black-box entry subcircuit for sky130_fd_sc_hd__nand2_1 abstract view
.subckt sky130_fd_sc_hd__nand2_1 A B VGND VNB VPB VPWR Y
.ends

* Black-box entry subcircuit for sky130_fd_sc_hd__clkbuf_2 abstract view
.subckt sky130_fd_sc_hd__clkbuf_2 A VGND VNB VPB VPWR X
.ends

* Black-box entry subcircuit for sky130_fd_sc_hd__fill_2 abstract view
.subckt sky130_fd_sc_hd__fill_2 VGND VNB VPB VPWR
.ends

* Black-box entry subcircuit for sky130_fd_sc_hd__dlygate4sd3_1 abstract view
.subckt sky130_fd_sc_hd__dlygate4sd3_1 A VGND VNB VPB VPWR X
.ends

* Black-box entry subcircuit for sky130_fd_sc_hd__decap_6 abstract view
.subckt sky130_fd_sc_hd__decap_6 VGND VNB VPB VPWR
.ends

* Black-box entry subcircuit for sky130_fd_sc_hd__a21o_1 abstract view
.subckt sky130_fd_sc_hd__a21o_1 A1 A2 B1 VGND VNB VPB VPWR X
.ends

* Black-box entry subcircuit for sky130_fd_sc_hd__nor2_1 abstract view
.subckt sky130_fd_sc_hd__nor2_1 A B VGND VNB VPB VPWR Y
.ends

* Black-box entry subcircuit for sky130_fd_sc_hd__decap_3 abstract view
.subckt sky130_fd_sc_hd__decap_3 VGND VNB VPB VPWR
.ends

* Black-box entry subcircuit for sky130_fd_sc_hd__mux2_1 abstract view
.subckt sky130_fd_sc_hd__mux2_1 A0 A1 S VGND VNB VPB VPWR X
.ends

* Black-box entry subcircuit for sky130_fd_sc_hd__inv_2 abstract view
.subckt sky130_fd_sc_hd__inv_2 A VGND VNB VPB VPWR Y
.ends

* Black-box entry subcircuit for sky130_fd_sc_hd__and4_1 abstract view
.subckt sky130_fd_sc_hd__and4_1 A B C D VGND VNB VPB VPWR X
.ends

* Black-box entry subcircuit for sky130_fd_sc_hd__or4_1 abstract view
.subckt sky130_fd_sc_hd__or4_1 A B C D VGND VNB VPB VPWR X
.ends

* Black-box entry subcircuit for sky130_fd_sc_hd__o21ai_1 abstract view
.subckt sky130_fd_sc_hd__o21ai_1 A1 A2 B1 VGND VNB VPB VPWR Y
.ends

* Black-box entry subcircuit for sky130_fd_sc_hd__a31o_1 abstract view
.subckt sky130_fd_sc_hd__a31o_1 A1 A2 A3 B1 VGND VNB VPB VPWR X
.ends

* Black-box entry subcircuit for sky130_fd_sc_hd__a32o_1 abstract view
.subckt sky130_fd_sc_hd__a32o_1 A1 A2 A3 B1 B2 VGND VNB VPB VPWR X
.ends

* Black-box entry subcircuit for sky130_fd_sc_hd__and2b_1 abstract view
.subckt sky130_fd_sc_hd__and2b_1 A_N B VGND VNB VPB VPWR X
.ends

* Black-box entry subcircuit for sky130_fd_sc_hd__dfxtp_1 abstract view
.subckt sky130_fd_sc_hd__dfxtp_1 CLK D VGND VNB VPB VPWR Q
.ends

* Black-box entry subcircuit for sky130_fd_sc_hd__or3_1 abstract view
.subckt sky130_fd_sc_hd__or3_1 A B C VGND VNB VPB VPWR X
.ends

* Black-box entry subcircuit for sky130_fd_sc_hd__nand3_1 abstract view
.subckt sky130_fd_sc_hd__nand3_1 A B C VGND VNB VPB VPWR Y
.ends

* Black-box entry subcircuit for sky130_fd_sc_hd__a21oi_1 abstract view
.subckt sky130_fd_sc_hd__a21oi_1 A1 A2 B1 VGND VNB VPB VPWR Y
.ends

* Black-box entry subcircuit for sky130_fd_sc_hd__a221o_1 abstract view
.subckt sky130_fd_sc_hd__a221o_1 A1 A2 B1 B2 C1 VGND VNB VPB VPWR X
.ends

* Black-box entry subcircuit for sky130_fd_sc_hd__nor4_1 abstract view
.subckt sky130_fd_sc_hd__nor4_1 A B C D VGND VNB VPB VPWR Y
.ends

* Black-box entry subcircuit for sky130_fd_sc_hd__nand2b_1 abstract view
.subckt sky130_fd_sc_hd__nand2b_1 A_N B VGND VNB VPB VPWR Y
.ends

* Black-box entry subcircuit for sky130_fd_sc_hd__a21boi_1 abstract view
.subckt sky130_fd_sc_hd__a21boi_1 A1 A2 B1_N VGND VNB VPB VPWR Y
.ends

* Black-box entry subcircuit for sky130_fd_sc_hd__dfstp_1 abstract view
.subckt sky130_fd_sc_hd__dfstp_1 CLK D SET_B VGND VNB VPB VPWR Q
.ends

* Black-box entry subcircuit for sky130_fd_sc_hd__o21bai_1 abstract view
.subckt sky130_fd_sc_hd__o21bai_1 A1 A2 B1_N VGND VNB VPB VPWR Y
.ends

* Black-box entry subcircuit for sky130_fd_sc_hd__a2bb2o_1 abstract view
.subckt sky130_fd_sc_hd__a2bb2o_1 A1_N A2_N B1 B2 VGND VNB VPB VPWR X
.ends

* Black-box entry subcircuit for sky130_fd_sc_hd__and3b_1 abstract view
.subckt sky130_fd_sc_hd__and3b_1 A_N B C VGND VNB VPB VPWR X
.ends

* Black-box entry subcircuit for sky130_fd_sc_hd__o221a_1 abstract view
.subckt sky130_fd_sc_hd__o221a_1 A1 A2 B1 B2 C1 VGND VNB VPB VPWR X
.ends

* Black-box entry subcircuit for sky130_fd_sc_hd__and2_1 abstract view
.subckt sky130_fd_sc_hd__and2_1 A B VGND VNB VPB VPWR X
.ends

* Black-box entry subcircuit for sky130_fd_sc_hd__nor3_1 abstract view
.subckt sky130_fd_sc_hd__nor3_1 A B C VGND VNB VPB VPWR Y
.ends

* Black-box entry subcircuit for sky130_fd_sc_hd__o311a_1 abstract view
.subckt sky130_fd_sc_hd__o311a_1 A1 A2 A3 B1 C1 VGND VNB VPB VPWR X
.ends

* Black-box entry subcircuit for sky130_fd_sc_hd__xor2_1 abstract view
.subckt sky130_fd_sc_hd__xor2_1 A B VGND VNB VPB VPWR X
.ends

* Black-box entry subcircuit for sky130_fd_sc_hd__o211a_1 abstract view
.subckt sky130_fd_sc_hd__o211a_1 A1 A2 B1 C1 VGND VNB VPB VPWR X
.ends

* Black-box entry subcircuit for sky130_fd_sc_hd__or4b_4 abstract view
.subckt sky130_fd_sc_hd__or4b_4 A B C D_N VGND VNB VPB VPWR X
.ends

* Black-box entry subcircuit for sky130_fd_sc_hd__a211o_1 abstract view
.subckt sky130_fd_sc_hd__a211o_1 A1 A2 B1 C1 VGND VNB VPB VPWR X
.ends

* Black-box entry subcircuit for sky130_fd_sc_hd__o31ai_1 abstract view
.subckt sky130_fd_sc_hd__o31ai_1 A1 A2 A3 B1 VGND VNB VPB VPWR Y
.ends

* Black-box entry subcircuit for sky130_fd_sc_hd__clkbuf_8 abstract view
.subckt sky130_fd_sc_hd__clkbuf_8 A VGND VNB VPB VPWR X
.ends

* Black-box entry subcircuit for sky130_fd_sc_hd__clkinvlp_4 abstract view
.subckt sky130_fd_sc_hd__clkinvlp_4 A VGND VNB VPB VPWR Y
.ends

* Black-box entry subcircuit for sky130_fd_sc_hd__o21a_2 abstract view
.subckt sky130_fd_sc_hd__o21a_2 A1 A2 B1 VGND VNB VPB VPWR X
.ends

* Black-box entry subcircuit for sky130_fd_sc_hd__a311oi_4 abstract view
.subckt sky130_fd_sc_hd__a311oi_4 A1 A2 A3 B1 C1 VGND VNB VPB VPWR Y
.ends

* Black-box entry subcircuit for sky130_fd_sc_hd__or4bb_1 abstract view
.subckt sky130_fd_sc_hd__or4bb_1 A B C_N D_N VGND VNB VPB VPWR X
.ends

* Black-box entry subcircuit for sky130_fd_sc_hd__dlymetal6s2s_1 abstract view
.subckt sky130_fd_sc_hd__dlymetal6s2s_1 A VGND VNB VPB VPWR X
.ends

* Black-box entry subcircuit for sky130_fd_sc_hd__o21a_1 abstract view
.subckt sky130_fd_sc_hd__o21a_1 A1 A2 B1 VGND VNB VPB VPWR X
.ends

* Black-box entry subcircuit for sky130_fd_sc_hd__a21oi_2 abstract view
.subckt sky130_fd_sc_hd__a21oi_2 A1 A2 B1 VGND VNB VPB VPWR Y
.ends

* Black-box entry subcircuit for sky130_fd_sc_hd__inv_12 abstract view
.subckt sky130_fd_sc_hd__inv_12 A VGND VNB VPB VPWR Y
.ends

* Black-box entry subcircuit for sky130_fd_sc_hd__nor2_2 abstract view
.subckt sky130_fd_sc_hd__nor2_2 A B VGND VNB VPB VPWR Y
.ends

* Black-box entry subcircuit for sky130_fd_sc_hd__or4bb_2 abstract view
.subckt sky130_fd_sc_hd__or4bb_2 A B C_N D_N VGND VNB VPB VPWR X
.ends

* Black-box entry subcircuit for sky130_fd_sc_hd__a21bo_1 abstract view
.subckt sky130_fd_sc_hd__a21bo_1 A1 A2 B1_N VGND VNB VPB VPWR X
.ends

* Black-box entry subcircuit for sky130_fd_sc_hd__bufinv_16 abstract view
.subckt sky130_fd_sc_hd__bufinv_16 A VGND VNB VPB VPWR Y
.ends

* Black-box entry subcircuit for sky130_fd_sc_hd__inv_8 abstract view
.subckt sky130_fd_sc_hd__inv_8 A VGND VNB VPB VPWR Y
.ends

* Black-box entry subcircuit for sky130_fd_sc_hd__o31a_1 abstract view
.subckt sky130_fd_sc_hd__o31a_1 A1 A2 A3 B1 VGND VNB VPB VPWR X
.ends

* Black-box entry subcircuit for sky130_fd_sc_hd__o21ba_1 abstract view
.subckt sky130_fd_sc_hd__o21ba_1 A1 A2 B1_N VGND VNB VPB VPWR X
.ends

* Black-box entry subcircuit for sky130_fd_sc_hd__clkbuf_16 abstract view
.subckt sky130_fd_sc_hd__clkbuf_16 A VGND VNB VPB VPWR X
.ends

* Black-box entry subcircuit for sky130_fd_sc_hd__o2bb2a_1 abstract view
.subckt sky130_fd_sc_hd__o2bb2a_1 A1_N A2_N B1 B2 VGND VNB VPB VPWR X
.ends

* Black-box entry subcircuit for sky130_fd_sc_hd__clkinv_2 abstract view
.subckt sky130_fd_sc_hd__clkinv_2 A VGND VNB VPB VPWR Y
.ends

* Black-box entry subcircuit for sky130_fd_sc_hd__inv_6 abstract view
.subckt sky130_fd_sc_hd__inv_6 A VGND VNB VPB VPWR Y
.ends

* Black-box entry subcircuit for sky130_fd_sc_hd__o32a_1 abstract view
.subckt sky130_fd_sc_hd__o32a_1 A1 A2 A3 B1 B2 VGND VNB VPB VPWR X
.ends

* Black-box entry subcircuit for sky130_fd_sc_hd__or3b_1 abstract view
.subckt sky130_fd_sc_hd__or3b_1 A B C_N VGND VNB VPB VPWR X
.ends

* Black-box entry subcircuit for sky130_fd_sc_hd__o211ai_1 abstract view
.subckt sky130_fd_sc_hd__o211ai_1 A1 A2 B1 C1 VGND VNB VPB VPWR Y
.ends

* Black-box entry subcircuit for sky130_fd_sc_hd__clkinv_4 abstract view
.subckt sky130_fd_sc_hd__clkinv_4 A VGND VNB VPB VPWR Y
.ends

* Black-box entry subcircuit for sky130_fd_sc_hd__a41o_1 abstract view
.subckt sky130_fd_sc_hd__a41o_1 A1 A2 A3 A4 B1 VGND VNB VPB VPWR X
.ends

* Black-box entry subcircuit for sky130_fd_sc_hd__or4b_1 abstract view
.subckt sky130_fd_sc_hd__or4b_1 A B C D_N VGND VNB VPB VPWR X
.ends

* Black-box entry subcircuit for sky130_fd_sc_hd__nand3b_1 abstract view
.subckt sky130_fd_sc_hd__nand3b_1 A_N B C VGND VNB VPB VPWR Y
.ends

* Black-box entry subcircuit for sky130_fd_sc_hd__a211oi_1 abstract view
.subckt sky130_fd_sc_hd__a211oi_1 A1 A2 B1 C1 VGND VNB VPB VPWR Y
.ends

* Black-box entry subcircuit for sky130_fd_sc_hd__buf_4 abstract view
.subckt sky130_fd_sc_hd__buf_4 A VGND VNB VPB VPWR X
.ends

* Black-box entry subcircuit for sky130_fd_sc_hd__buf_1 abstract view
.subckt sky130_fd_sc_hd__buf_1 A VGND VNB VPB VPWR X
.ends

* Black-box entry subcircuit for sky130_fd_sc_hd__clkinv_8 abstract view
.subckt sky130_fd_sc_hd__clkinv_8 A VGND VNB VPB VPWR Y
.ends

* Black-box entry subcircuit for sky130_fd_sc_hd__and4b_1 abstract view
.subckt sky130_fd_sc_hd__and4b_1 A_N B C D VGND VNB VPB VPWR X
.ends

* Black-box entry subcircuit for sky130_fd_sc_hd__nand4_1 abstract view
.subckt sky130_fd_sc_hd__nand4_1 A B C D VGND VNB VPB VPWR Y
.ends

* Black-box entry subcircuit for sky130_fd_sc_hd__clkbuf_1 abstract view
.subckt sky130_fd_sc_hd__clkbuf_1 A VGND VNB VPB VPWR X
.ends

* Black-box entry subcircuit for sky130_fd_sc_hd__or4_2 abstract view
.subckt sky130_fd_sc_hd__or4_2 A B C D VGND VNB VPB VPWR X
.ends

* Black-box entry subcircuit for sky130_fd_sc_hd__xnor2_2 abstract view
.subckt sky130_fd_sc_hd__xnor2_2 A B VGND VNB VPB VPWR Y
.ends

* Black-box entry subcircuit for sky130_fd_sc_hd__a22oi_1 abstract view
.subckt sky130_fd_sc_hd__a22oi_1 A1 A2 B1 B2 VGND VNB VPB VPWR Y
.ends

* Black-box entry subcircuit for sky130_fd_sc_hd__a2111o_1 abstract view
.subckt sky130_fd_sc_hd__a2111o_1 A1 A2 B1 C1 D1 VGND VNB VPB VPWR X
.ends

* Black-box entry subcircuit for sky130_fd_sc_hd__nor3_2 abstract view
.subckt sky130_fd_sc_hd__nor3_2 A B C VGND VNB VPB VPWR Y
.ends

* Black-box entry subcircuit for sky130_fd_sc_hd__dfrtp_4 abstract view
.subckt sky130_fd_sc_hd__dfrtp_4 CLK D RESET_B VGND VNB VPB VPWR Q
.ends

* Black-box entry subcircuit for sky130_fd_sc_hd__inv_4 abstract view
.subckt sky130_fd_sc_hd__inv_4 A VGND VNB VPB VPWR Y
.ends

* Black-box entry subcircuit for sky130_fd_sc_hd__o2111a_1 abstract view
.subckt sky130_fd_sc_hd__o2111a_1 A1 A2 B1 C1 D1 VGND VNB VPB VPWR X
.ends

* Black-box entry subcircuit for sky130_fd_sc_hd__o221ai_1 abstract view
.subckt sky130_fd_sc_hd__o221ai_1 A1 A2 B1 B2 C1 VGND VNB VPB VPWR Y
.ends

* Black-box entry subcircuit for sky130_fd_sc_hd__nand2_2 abstract view
.subckt sky130_fd_sc_hd__nand2_2 A B VGND VNB VPB VPWR Y
.ends

* Black-box entry subcircuit for sky130_fd_sc_hd__nor3b_1 abstract view
.subckt sky130_fd_sc_hd__nor3b_1 A B C_N VGND VNB VPB VPWR Y
.ends

* Black-box entry subcircuit for sky130_fd_sc_hd__a21o_2 abstract view
.subckt sky130_fd_sc_hd__a21o_2 A1 A2 B1 VGND VNB VPB VPWR X
.ends

* Black-box entry subcircuit for sky130_fd_sc_hd__and4_4 abstract view
.subckt sky130_fd_sc_hd__and4_4 A B C D VGND VNB VPB VPWR X
.ends

* Black-box entry subcircuit for sky130_fd_sc_hd__dfstp_2 abstract view
.subckt sky130_fd_sc_hd__dfstp_2 CLK D SET_B VGND VNB VPB VPWR Q
.ends

* Black-box entry subcircuit for sky130_fd_sc_hd__or3b_4 abstract view
.subckt sky130_fd_sc_hd__or3b_4 A B C_N VGND VNB VPB VPWR X
.ends

* Black-box entry subcircuit for sky130_fd_sc_hd__nand3b_4 abstract view
.subckt sky130_fd_sc_hd__nand3b_4 A_N B C VGND VNB VPB VPWR Y
.ends

* Black-box entry subcircuit for sky130_fd_sc_hd__diode_2 abstract view
.subckt sky130_fd_sc_hd__diode_2 DIODE VGND VNB VPB VPWR
.ends

* Black-box entry subcircuit for sky130_fd_sc_hd__and2b_2 abstract view
.subckt sky130_fd_sc_hd__and2b_2 A_N B VGND VNB VPB VPWR X
.ends

* Black-box entry subcircuit for sky130_fd_sc_hd__and2_2 abstract view
.subckt sky130_fd_sc_hd__and2_2 A B VGND VNB VPB VPWR X
.ends

.subckt calculator_top ColOut[0] ColOut[1] ColOut[2] ColOut[3] RowIn[0] RowIn[1] RowIn[2]
+ RowIn[3] VGND VPWR clk complete display_output[0] display_output[10] display_output[11]
+ display_output[12] display_output[13] display_output[14] display_output[15] display_output[1]
+ display_output[2] display_output[3] display_output[4] display_output[5] display_output[6]
+ display_output[7] display_output[8] display_output[9] input_state_FPGA[0] input_state_FPGA[1]
+ input_state_FPGA[2] key_pressed nRST
X_2106_ input_ctrl_inst.debounce_cnt\[11\] input_ctrl_inst.debounce_cnt\[10\] _1155_
+ VGND VGND VPWR VPWR _1160_ sky130_fd_sc_hd__and3_1
XFILLER_39_233 VGND VGND VPWR VPWR sky130_fd_sc_hd__fill_1
XFILLER_36_19 VGND VGND VPWR VPWR sky130_fd_sc_hd__decap_8
X_2037_ gencon_inst.mult_calc.compCount.in2\[5\] _1100_ _1103_ gencon_inst.mult_calc.compCount.in2\[6\]
+ VGND VGND VPWR VPWR _1104_ sky130_fd_sc_hd__a22o_1
XFILLER_62_280 VGND VGND VPWR VPWR sky130_fd_sc_hd__decap_4
XFILLER_52_18 VGND VGND VPWR VPWR sky130_fd_sc_hd__fill_1
XTAP_TAPCELL_ROW_20_312 VGND VPWR sky130_fd_sc_hd__tapvpwrvgnd_1
XFILLER_45_225 VGND VGND VPWR VPWR sky130_fd_sc_hd__decap_8
XFILLER_33_409 VGND VGND VPWR VPWR sky130_fd_sc_hd__fill_1
XFILLER_26_74 VGND VGND VPWR VPWR sky130_fd_sc_hd__fill_1
XFILLER_67_81 VPWR VGND VPWR VGND sky130_ef_sc_hd__decap_12
X_1270_ gencon_inst.operand1\[7\] net45 _0604_ _0605_ VGND VGND VPWR VPWR _0114_ sky130_fd_sc_hd__o22a_1
XFILLER_51_239 VGND VGND VPWR VPWR sky130_fd_sc_hd__fill_1
XTAP_TAPCELL_ROW_42_481 VGND VPWR sky130_fd_sc_hd__tapvpwrvgnd_1
XTAP_TAPCELL_ROW_34_415 VGND VPWR sky130_fd_sc_hd__tapvpwrvgnd_1
XFILLER_32_442 VGND VGND VPWR VPWR sky130_fd_sc_hd__decap_4
X_2724_ clknet_leaf_17_clk _0268_ net153 VGND VGND VPWR VPWR gencon_inst.add_calc.main.GENERATE_ADDER\[3\].thingy.in1
+ sky130_fd_sc_hd__dfrtp_1
X_1606_ net109 gencon_inst.add_calc.main.in2\[4\] VGND VGND VPWR VPWR _0821_ sky130_fd_sc_hd__or2_1
X_2655_ clknet_leaf_33_clk _0204_ net126 VGND VGND VPWR VPWR gencon_inst.mult_calc.compCount.in2\[2\]
+ sky130_fd_sc_hd__dfrtp_1
X_2586_ clknet_leaf_11_clk _0001_ net136 VGND VGND VPWR VPWR gencon_inst.add_calc.state\[2\]
+ sky130_fd_sc_hd__dfrtp_2
XFILLER_59_306 VGND VGND VPWR VPWR sky130_fd_sc_hd__decap_4
X_1399_ gencon_inst.ALU_in2\[15\] gencon_inst.ALU_in1\[15\] VGND VGND VPWR VPWR _0696_
+ sky130_fd_sc_hd__xnor2_1
XFILLER_47_29 VPWR VGND VPWR VGND sky130_ef_sc_hd__decap_12
Xfanout138 net5 VGND VGND VPWR VPWR net138 sky130_fd_sc_hd__buf_2
X_1537_ net415 net90 _0759_ net102 VGND VGND VPWR VPWR _0227_ sky130_fd_sc_hd__a22o_1
Xfanout149 net150 VGND VGND VPWR VPWR net149 sky130_fd_sc_hd__clkbuf_4
X_1468_ gencon_inst.mult_calc.main.a0.in2 gencon_inst.mult_calc.main.a0.in1 VGND VGND
+ VPWR VPWR _0701_ sky130_fd_sc_hd__nand2_1
Xfanout127 net130 VGND VGND VPWR VPWR net127 sky130_fd_sc_hd__clkbuf_4
Xfanout116 input_ctrl_inst.col_index\[2\] VGND VGND VPWR VPWR net116 sky130_fd_sc_hd__clkbuf_2
Xfanout105 gencon_inst.mult_calc.next_finish VGND VGND VPWR VPWR net105 sky130_fd_sc_hd__clkbuf_4
XFILLER_42_217 VGND VGND VPWR VPWR sky130_fd_sc_hd__fill_2
XFILLER_12_43 VGND VGND VPWR VPWR sky130_fd_sc_hd__fill_2
Xhold170 _0181_ VGND VGND VPWR VPWR net330 sky130_fd_sc_hd__dlygate4sd3_1
XFILLER_2_357 VGND VGND VPWR VPWR sky130_fd_sc_hd__decap_6
Xhold181 _0212_ VGND VGND VPWR VPWR net341 sky130_fd_sc_hd__dlygate4sd3_1
Xhold192 gencon_inst.mult_calc.compCount.in2\[14\] VGND VGND VPWR VPWR net352 sky130_fd_sc_hd__dlygate4sd3_1
XFILLER_73_397 VGND VGND VPWR VPWR sky130_fd_sc_hd__fill_1
XTAP_TAPCELL_ROW_56_584 VGND VPWR sky130_fd_sc_hd__tapvpwrvgnd_1
XFILLER_41_250 VGND VGND VPWR VPWR sky130_fd_sc_hd__decap_6
X_2440_ input_ctrl_inst.col_index\[30\] _0528_ _0551_ VGND VGND VPWR VPWR _0556_ sky130_fd_sc_hd__and3_1
XFILLER_56_309 VGND VGND VPWR VPWR sky130_fd_sc_hd__decap_6
X_1253_ net72 _0590_ net43 VGND VGND VPWR VPWR _0592_ sky130_fd_sc_hd__a21o_1
X_1322_ gencon_inst.operand2\[2\] gencon_inst.latched_keypad_input\[2\] VGND VGND
+ VPWR VPWR _0648_ sky130_fd_sc_hd__or2_1
X_2371_ input_ctrl_inst.col_index\[8\] _0509_ VGND VGND VPWR VPWR _0510_ sky130_fd_sc_hd__nor2_1
XFILLER_64_397 VPWR VGND VPWR VGND sky130_ef_sc_hd__decap_12
XFILLER_64_342 VGND VGND VPWR VPWR sky130_fd_sc_hd__decap_3
XFILLER_64_331 VGND VGND VPWR VPWR sky130_fd_sc_hd__decap_4
X_2707_ clknet_leaf_11_clk _0251_ net136 VGND VGND VPWR VPWR gencon_inst.add_calc.main.in2\[1\]
+ sky130_fd_sc_hd__dfrtp_1
X_2569_ clknet_leaf_5_clk _0122_ net128 VGND VGND VPWR VPWR gencon_inst.operand2\[0\]
+ sky130_fd_sc_hd__dfrtp_2
X_2638_ clknet_leaf_36_clk _0187_ net126 VGND VGND VPWR VPWR gencon_inst.mult_calc.main.a0.in1
+ sky130_fd_sc_hd__dfrtp_1
XFILLER_74_139 VGND VGND VPWR VPWR sky130_fd_sc_hd__fill_1
XFILLER_74_27 VGND VGND VPWR VPWR sky130_fd_sc_hd__fill_1
XTAP_TAPCELL_ROW_2_176 VGND VPWR sky130_fd_sc_hd__tapvpwrvgnd_1
XFILLER_23_42 VGND VGND VPWR VPWR sky130_fd_sc_hd__decap_3
XFILLER_11_434 VPWR VGND VPWR VGND sky130_ef_sc_hd__decap_12
XFILLER_38_309 VGND VGND VPWR VPWR sky130_fd_sc_hd__decap_8
XFILLER_2_165 VPWR VGND VPWR VGND sky130_ef_sc_hd__decap_12
XFILLER_2_121 VPWR VGND VPWR VGND sky130_ef_sc_hd__decap_12
XFILLER_73_161 VGND VGND VPWR VPWR sky130_fd_sc_hd__decap_6
XFILLER_61_301 VGND VGND VPWR VPWR sky130_fd_sc_hd__decap_8
XFILLER_0_57 VPWR VGND VPWR VGND sky130_ef_sc_hd__decap_12
X_1871_ gencon_inst.operand1\[15\] net435 net46 VGND VGND VPWR VPWR _0333_ sky130_fd_sc_hd__mux2_1
X_1940_ gencon_inst.operand2\[0\] net51 net34 net344 VGND VGND VPWR VPWR _0361_ sky130_fd_sc_hd__a22o_1
XFILLER_9_55 VGND VGND VPWR VPWR sky130_fd_sc_hd__fill_1
XFILLER_14_272 VGND VGND VPWR VPWR sky130_fd_sc_hd__fill_1
XFILLER_21_209 VGND VGND VPWR VPWR sky130_fd_sc_hd__decap_6
XFILLER_69_401 VGND VGND VPWR VPWR sky130_fd_sc_hd__decap_3
XFILLER_50_3 VGND VGND VPWR VPWR sky130_fd_sc_hd__decap_8
X_2423_ input_ctrl_inst.col_index\[25\] input_ctrl_inst.col_index\[26\] _0540_ VGND
+ VGND VPWR VPWR _0544_ sky130_fd_sc_hd__and3_1
XTAP_TAPCELL_ROW_67_668 VGND VPWR sky130_fd_sc_hd__tapvpwrvgnd_1
XFILLER_56_139 VGND VGND VPWR VPWR sky130_fd_sc_hd__fill_1
X_1305_ gencon_inst.operand1\[14\] net44 _0632_ _0633_ VGND VGND VPWR VPWR _0121_
+ sky130_fd_sc_hd__o22a_1
XFILLER_49_180 VGND VGND VPWR VPWR sky130_fd_sc_hd__fill_2
X_1236_ _0576_ VGND VGND VPWR VPWR _0577_ sky130_fd_sc_hd__inv_2
X_2285_ input_ctrl_inst.scan_timer\[9\] input_ctrl_inst.scan_timer\[11\] input_ctrl_inst.scan_timer\[10\]
+ _0461_ VGND VGND VPWR VPWR _0464_ sky130_fd_sc_hd__and4_1
X_2354_ net116 _0411_ _0429_ _0432_ VGND VGND VPWR VPWR _0499_ sky130_fd_sc_hd__or4_1
XFILLER_52_378 VPWR VGND VPWR VGND sky130_ef_sc_hd__decap_12
XFILLER_52_356 VGND VGND VPWR VPWR sky130_fd_sc_hd__decap_8
XFILLER_60_29 VGND VGND VPWR VPWR sky130_fd_sc_hd__fill_2
XTAP_TAPCELL_ROW_50_535 VGND VPWR sky130_fd_sc_hd__tapvpwrvgnd_1
XFILLER_4_419 VGND VGND VPWR VPWR sky130_fd_sc_hd__fill_1
XFILLER_20_253 VGND VGND VPWR VPWR sky130_fd_sc_hd__decap_3
XFILLER_69_27 VPWR VGND VPWR VGND sky130_ef_sc_hd__decap_12
XTAP_TAPCELL_ROW_7_213 VGND VPWR sky130_fd_sc_hd__tapvpwrvgnd_1
XFILLER_28_375 VGND VGND VPWR VPWR sky130_fd_sc_hd__fill_1
XFILLER_70_175 VGND VGND VPWR VPWR sky130_fd_sc_hd__decap_6
XFILLER_70_153 VGND VGND VPWR VPWR sky130_fd_sc_hd__fill_2
XFILLER_34_85 VGND VGND VPWR VPWR sky130_fd_sc_hd__decap_6
XFILLER_34_41 VGND VGND VPWR VPWR sky130_fd_sc_hd__fill_1
XFILLER_11_242 VPWR VGND VPWR VGND sky130_ef_sc_hd__decap_12
XTAP_TAPCELL_ROW_13_259 VGND VPWR sky130_fd_sc_hd__tapvpwrvgnd_1
XFILLER_3_441 VGND VGND VPWR VPWR sky130_fd_sc_hd__decap_6
XFILLER_7_235 VGND VGND VPWR VPWR sky130_fd_sc_hd__decap_4
XFILLER_7_279 VGND VGND VPWR VPWR sky130_fd_sc_hd__fill_1
XFILLER_11_286 VGND VGND VPWR VPWR sky130_fd_sc_hd__decap_8
XFILLER_66_426 VGND VGND VPWR VPWR sky130_fd_sc_hd__fill_1
X_2070_ _1054_ _1055_ _1064_ _1132_ VGND VGND VPWR VPWR _1134_ sky130_fd_sc_hd__a22o_1
XFILLER_38_139 VGND VGND VPWR VPWR sky130_fd_sc_hd__fill_1
XFILLER_75_81 VGND VGND VPWR VPWR sky130_fd_sc_hd__decap_3
XTAP_TAPCELL_ROW_29_381 VGND VPWR sky130_fd_sc_hd__tapvpwrvgnd_1
X_1785_ net362 _0956_ net112 VGND VGND VPWR VPWR _0278_ sky130_fd_sc_hd__mux2_1
X_1854_ gencon_inst.operand2\[14\] net250 net49 VGND VGND VPWR VPWR _0316_ sky130_fd_sc_hd__mux2_1
X_1923_ gencon_inst.operand1\[10\] _0378_ net61 gencon_inst.mult_calc.out\[10\] VGND
+ VGND VPWR VPWR _1018_ sky130_fd_sc_hd__a22o_1
XFILLER_69_253 VGND VGND VPWR VPWR sky130_fd_sc_hd__fill_2
X_2406_ _0527_ _0532_ _0529_ VGND VGND VPWR VPWR _0095_ sky130_fd_sc_hd__o21ai_1
XFILLER_69_297 VPWR VGND VPWR VGND sky130_ef_sc_hd__decap_12
XFILLER_55_29 VGND VGND VPWR VPWR sky130_fd_sc_hd__decap_4
X_1219_ net93 _0561_ VGND VGND VPWR VPWR _0562_ sky130_fd_sc_hd__nor2_1
X_2268_ input_ctrl_inst.scan_timer\[1\] input_ctrl_inst.scan_timer\[2\] _0439_ input_ctrl_inst.scan_timer\[3\]
+ VGND VGND VPWR VPWR _0455_ sky130_fd_sc_hd__a31o_1
XFILLER_25_334 VGND VGND VPWR VPWR sky130_fd_sc_hd__fill_2
X_2337_ net94 net243 net78 gencon_inst.mult_calc.count.GENERATE_ADDER\[4\].thingy.in1
+ VGND VGND VPWR VPWR _0064_ sky130_fd_sc_hd__a22o_1
X_2199_ net117 input_ctrl_inst.col_index\[1\] net116 input_ctrl_inst.col_index\[3\]
+ VGND VGND VPWR VPWR _0398_ sky130_fd_sc_hd__or4_1
XFILLER_71_39 VPWR VGND VPWR VGND sky130_ef_sc_hd__decap_12
XFILLER_52_153 VPWR VGND VPWR VGND sky130_ef_sc_hd__decap_12
XFILLER_40_359 VGND VGND VPWR VPWR sky130_fd_sc_hd__decap_4
XFILLER_40_337 VGND VGND VPWR VPWR sky130_fd_sc_hd__decap_3
Xhold52 gencon_inst.ALU_in2\[13\] VGND VGND VPWR VPWR net212 sky130_fd_sc_hd__dlygate4sd3_1
Xhold63 _0308_ VGND VGND VPWR VPWR net223 sky130_fd_sc_hd__dlygate4sd3_1
Xhold30 gencon_inst.prev_operator_input\[1\] VGND VGND VPWR VPWR net190 sky130_fd_sc_hd__dlygate4sd3_1
Xhold41 input_ctrl_inst.scan_timer\[17\] VGND VGND VPWR VPWR net201 sky130_fd_sc_hd__dlygate4sd3_1
XFILLER_29_30 VPWR VGND VPWR VGND sky130_ef_sc_hd__decap_12
XFILLER_0_433 VPWR VGND VPWR VGND sky130_ef_sc_hd__decap_12
Xhold74 _0073_ VGND VGND VPWR VPWR net234 sky130_fd_sc_hd__dlygate4sd3_1
XFILLER_71_440 VGND VGND VPWR VPWR sky130_fd_sc_hd__decap_6
XTAP_TAPCELL_ROW_61_619 VGND VPWR sky130_fd_sc_hd__tapvpwrvgnd_1
Xhold96 gencon_inst.ALU_in2\[0\] VGND VGND VPWR VPWR net256 sky130_fd_sc_hd__dlygate4sd3_1
XFILLER_43_164 VGND VGND VPWR VPWR sky130_fd_sc_hd__decap_4
Xhold85 input_ctrl_inst.scan_timer\[16\] VGND VGND VPWR VPWR net245 sky130_fd_sc_hd__dlygate4sd3_1
XFILLER_43_197 VGND VGND VPWR VPWR sky130_fd_sc_hd__decap_6
X_1570_ net107 gencon_inst.add_calc.main.in2\[13\] VGND VGND VPWR VPWR _0785_ sky130_fd_sc_hd__or2_1
XFILLER_3_293 VPWR VGND VPWR VGND sky130_ef_sc_hd__decap_12
XFILLER_66_289 VGND VGND VPWR VPWR sky130_fd_sc_hd__fill_2
XFILLER_66_256 VGND VGND VPWR VPWR sky130_fd_sc_hd__fill_1
X_2122_ _1053_ _1132_ _1169_ _1054_ _1055_ VGND VGND VPWR VPWR _1173_ sky130_fd_sc_hd__a32o_1
XFILLER_13_3 VPWR VGND VPWR VGND sky130_ef_sc_hd__decap_12
X_2053_ _1087_ _1116_ _1119_ VGND VGND VPWR VPWR _1120_ sky130_fd_sc_hd__o21ai_1
X_1768_ gencon_inst.ALU_in2\[5\] gencon_inst.ALU_in1\[5\] net65 VGND VGND VPWR VPWR
+ _0948_ sky130_fd_sc_hd__mux2_1
X_1906_ net52 _0972_ net39 net21 VGND VGND VPWR VPWR _1007_ sky130_fd_sc_hd__a22o_1
X_1837_ gencon_inst.read_input gencon_inst.operator_input\[2\] VGND VGND VPWR VPWR
+ _0987_ sky130_fd_sc_hd__and2b_1
X_1699_ _0849_ _0904_ VGND VGND VPWR VPWR _0905_ sky130_fd_sc_hd__xnor2_1
XFILLER_57_212 VPWR VGND VPWR VGND sky130_ef_sc_hd__decap_12
XFILLER_57_256 VGND VGND VPWR VPWR sky130_fd_sc_hd__fill_1
XFILLER_40_156 VPWR VGND VPWR VGND sky130_ef_sc_hd__decap_12
XFILLER_40_112 VGND VGND VPWR VPWR sky130_fd_sc_hd__decap_4
XTAP_TAPCELL_ROW_23_332 VGND VPWR sky130_fd_sc_hd__tapvpwrvgnd_1
XFILLER_13_348 VGND VGND VPWR VPWR sky130_fd_sc_hd__decap_4
Xoutput20 net20 VGND VGND VPWR VPWR display_output[3] sky130_fd_sc_hd__buf_2
Xoutput7 net7 VGND VGND VPWR VPWR ColOut[1] sky130_fd_sc_hd__buf_2
XFILLER_63_204 VGND VGND VPWR VPWR sky130_fd_sc_hd__fill_2
XFILLER_71_281 VGND VGND VPWR VPWR sky130_fd_sc_hd__decap_8
XFILLER_31_167 VGND VGND VPWR VPWR sky130_fd_sc_hd__fill_1
XFILLER_16_186 VGND VGND VPWR VPWR sky130_fd_sc_hd__fill_1
X_1622_ _0834_ _0836_ VGND VGND VPWR VPWR _0837_ sky130_fd_sc_hd__nor2_1
X_2740_ clknet_leaf_35_clk _0284_ VGND VGND VPWR VPWR gencon_inst.mult_calc.INn1\[3\]
+ sky130_fd_sc_hd__dfxtp_1
XFILLER_31_178 VGND VGND VPWR VPWR sky130_fd_sc_hd__fill_2
X_2671_ clknet_leaf_36_clk _0220_ net140 VGND VGND VPWR VPWR gencon_inst.mult_calc.adderSave\[3\]
+ sky130_fd_sc_hd__dfrtp_1
XFILLER_39_201 VGND VGND VPWR VPWR sky130_fd_sc_hd__decap_3
X_1484_ gencon_inst.mult_calc.main.GENERATE_ADDER\[3\].thingy.in2 gencon_inst.mult_calc.main.GENERATE_ADDER\[3\].thingy.in1
+ VGND VGND VPWR VPWR _0714_ sky130_fd_sc_hd__nand2_1
X_1553_ _0770_ _0771_ _0772_ VGND VGND VPWR VPWR _0773_ sky130_fd_sc_hd__or3_1
X_2105_ input_ctrl_inst.debounce_cnt\[10\] net37 _1158_ _1159_ VGND VGND VPWR VPWR
+ _0009_ sky130_fd_sc_hd__a22o_1
X_2036_ _1077_ _1102_ VGND VGND VPWR VPWR _1103_ sky130_fd_sc_hd__or2_1
XFILLER_50_410 VGND VGND VPWR VPWR sky130_fd_sc_hd__fill_1
XFILLER_10_329 VGND VGND VPWR VPWR sky130_fd_sc_hd__fill_1
XTAP_TAPCELL_ROW_20_313 VGND VPWR sky130_fd_sc_hd__tapvpwrvgnd_1
XFILLER_22_101 VGND VGND VPWR VPWR sky130_fd_sc_hd__fill_1
XFILLER_45_259 VGND VGND VPWR VPWR sky130_fd_sc_hd__decap_3
XFILLER_9_105 VGND VGND VPWR VPWR sky130_fd_sc_hd__decap_6
XFILLER_42_85 VPWR VGND VPWR VGND sky130_ef_sc_hd__decap_12
XFILLER_42_74 VGND VGND VPWR VPWR sky130_fd_sc_hd__decap_8
XFILLER_42_41 VGND VGND VPWR VPWR sky130_fd_sc_hd__fill_1
XFILLER_68_307 VGND VGND VPWR VPWR sky130_fd_sc_hd__fill_1
XFILLER_3_57 VPWR VGND VPWR VGND sky130_ef_sc_hd__decap_12
XFILLER_67_93 VPWR VGND VPWR VGND sky130_ef_sc_hd__decap_12
XFILLER_36_237 VGND VGND VPWR VPWR sky130_fd_sc_hd__fill_2
XTAP_TAPCELL_ROW_34_416 VGND VPWR sky130_fd_sc_hd__tapvpwrvgnd_1
X_2723_ clknet_leaf_12_clk _0267_ net137 VGND VGND VPWR VPWR gencon_inst.add_calc.main.GENERATE_ADDER\[2\].thingy.in1
+ sky130_fd_sc_hd__dfrtp_1
XFILLER_32_421 VGND VGND VPWR VPWR sky130_fd_sc_hd__fill_1
X_1605_ gencon_inst.add_calc.main.GENERATE_ADDER\[5\].thingy.in1 _0817_ _0818_ VGND
+ VGND VPWR VPWR _0820_ sky130_fd_sc_hd__nand3_1
X_2585_ clknet_leaf_11_clk net110 net136 VGND VGND VPWR VPWR gencon_inst.add_calc.state\[1\]
+ sky130_fd_sc_hd__dfrtp_1
X_1536_ _0756_ _0758_ VGND VGND VPWR VPWR _0759_ sky130_fd_sc_hd__xnor2_1
X_2654_ clknet_leaf_37_clk _0203_ net126 VGND VGND VPWR VPWR gencon_inst.mult_calc.compCount.in2\[1\]
+ sky130_fd_sc_hd__dfrtp_1
Xfanout106 net109 VGND VGND VPWR VPWR net106 sky130_fd_sc_hd__buf_2
Xfanout128 net130 VGND VGND VPWR VPWR net128 sky130_fd_sc_hd__clkbuf_4
Xfanout117 input_ctrl_inst.col_index\[0\] VGND VGND VPWR VPWR net117 sky130_fd_sc_hd__clkbuf_2
Xfanout139 net145 VGND VGND VPWR VPWR net139 sky130_fd_sc_hd__clkbuf_4
X_1398_ gencon_inst.mult_calc.state\[2\] _1084_ net89 net216 VGND VGND VPWR VPWR _0152_
+ sky130_fd_sc_hd__a22o_1
X_1467_ net352 net307 net100 VGND VGND VPWR VPWR _0216_ sky130_fd_sc_hd__mux2_1
X_2019_ _1080_ _1085_ VGND VGND VPWR VPWR _1086_ sky130_fd_sc_hd__or2_1
XPHY_EDGE_ROW_19_Left_95 VGND VGND VPWR VPWR sky130_fd_sc_hd__decap_3
Xhold171 gencon_inst.add_calc.main.in2\[11\] VGND VGND VPWR VPWR net331 sky130_fd_sc_hd__dlygate4sd3_1
Xhold182 gencon_inst.mult_calc.INn2\[13\] VGND VGND VPWR VPWR net342 sky130_fd_sc_hd__dlygate4sd3_1
Xhold193 input_ctrl_inst.scan_timer\[7\] VGND VGND VPWR VPWR net353 sky130_fd_sc_hd__dlygate4sd3_1
Xhold160 gencon_inst.mult_calc.main.GENERATE_ADDER\[5\].thingy.in2 VGND VGND VPWR