* NGSPICE file created from matrix_multiplier.ext - technology: sky130A

* Black-box entry subcircuit for sky130_fd_sc_hd__and2_1 abstract view
.subckt sky130_fd_sc_hd__and2_1 A B VGND VNB VPB VPWR X
.ends

* Black-box entry subcircuit for sky130_fd_sc_hd__mux2_1 abstract view
.subckt sky130_fd_sc_hd__mux2_1 A0 A1 S VGND VNB VPB VPWR X
.ends

* Black-box entry subcircuit for sky130_fd_sc_hd__fill_1 abstract view
.subckt sky130_fd_sc_hd__fill_1 VGND VNB VPB VPWR
.ends

* Black-box entry subcircuit for sky130_fd_sc_hd__tapvpwrvgnd_1 abstract view
.subckt sky130_fd_sc_hd__tapvpwrvgnd_1 VGND VPWR
.ends

* Black-box entry subcircuit for sky130_fd_sc_hd__and3_1 abstract view
.subckt sky130_fd_sc_hd__and3_1 A B C VGND VNB VPB VPWR X
.ends

* Black-box entry subcircuit for sky130_fd_sc_hd__a21oi_1 abstract view
.subckt sky130_fd_sc_hd__a21oi_1 A1 A2 B1 VGND VNB VPB VPWR Y
.ends

* Black-box entry subcircuit for sky130_fd_sc_hd__decap_8 abstract view
.subckt sky130_fd_sc_hd__decap_8 VGND VNB VPB VPWR
.ends

* Black-box entry subcircuit for sky130_fd_sc_hd__fill_2 abstract view
.subckt sky130_fd_sc_hd__fill_2 VGND VNB VPB VPWR
.ends

* Black-box entry subcircuit for sky130_fd_sc_hd__dlygate4sd3_1 abstract view
.subckt sky130_fd_sc_hd__dlygate4sd3_1 A VGND VNB VPB VPWR X
.ends

* Black-box entry subcircuit for sky130_ef_sc_hd__decap_12 abstract view
.subckt sky130_ef_sc_hd__decap_12 VPWR VGND VPB VNB
.ends

* Black-box entry subcircuit for sky130_fd_sc_hd__decap_3 abstract view
.subckt sky130_fd_sc_hd__decap_3 VGND VNB VPB VPWR
.ends

* Black-box entry subcircuit for sky130_fd_sc_hd__clkbuf_8 abstract view
.subckt sky130_fd_sc_hd__clkbuf_8 A VGND VNB VPB VPWR X
.ends

* Black-box entry subcircuit for sky130_fd_sc_hd__xor2_1 abstract view
.subckt sky130_fd_sc_hd__xor2_1 A B VGND VNB VPB VPWR X
.ends

* Black-box entry subcircuit for sky130_fd_sc_hd__a21o_1 abstract view
.subckt sky130_fd_sc_hd__a21o_1 A1 A2 B1 VGND VNB VPB VPWR X
.ends

* Black-box entry subcircuit for sky130_fd_sc_hd__inv_2 abstract view
.subckt sky130_fd_sc_hd__inv_2 A VGND VNB VPB VPWR Y
.ends

* Black-box entry subcircuit for sky130_fd_sc_hd__buf_2 abstract view
.subckt sky130_fd_sc_hd__buf_2 A VGND VNB VPB VPWR X
.ends

* Black-box entry subcircuit for sky130_fd_sc_hd__decap_4 abstract view
.subckt sky130_fd_sc_hd__decap_4 VGND VNB VPB VPWR
.ends

* Black-box entry subcircuit for sky130_fd_sc_hd__decap_6 abstract view
.subckt sky130_fd_sc_hd__decap_6 VGND VNB VPB VPWR
.ends

* Black-box entry subcircuit for sky130_fd_sc_hd__nand4_2 abstract view
.subckt sky130_fd_sc_hd__nand4_2 A B C D VGND VNB VPB VPWR Y
.ends

* Black-box entry subcircuit for sky130_fd_sc_hd__xnor2_1 abstract view
.subckt sky130_fd_sc_hd__xnor2_1 A B VGND VNB VPB VPWR Y
.ends

* Black-box entry subcircuit for sky130_fd_sc_hd__a22oi_1 abstract view
.subckt sky130_fd_sc_hd__a22oi_1 A1 A2 B1 B2 VGND VNB VPB VPWR Y
.ends

* Black-box entry subcircuit for sky130_fd_sc_hd__a22o_1 abstract view
.subckt sky130_fd_sc_hd__a22o_1 A1 A2 B1 B2 VGND VNB VPB VPWR X
.ends

* Black-box entry subcircuit for sky130_fd_sc_hd__dfxtp_1 abstract view
.subckt sky130_fd_sc_hd__dfxtp_1 CLK D VGND VNB VPB VPWR Q
.ends

* Black-box entry subcircuit for sky130_fd_sc_hd__o21ai_1 abstract view
.subckt sky130_fd_sc_hd__o21ai_1 A1 A2 B1 VGND VNB VPB VPWR Y
.ends

* Black-box entry subcircuit for sky130_fd_sc_hd__o21ba_1 abstract view
.subckt sky130_fd_sc_hd__o21ba_1 A1 A2 B1_N VGND VNB VPB VPWR X
.ends

* Black-box entry subcircuit for sky130_fd_sc_hd__nand2_1 abstract view
.subckt sky130_fd_sc_hd__nand2_1 A B VGND VNB VPB VPWR Y
.ends

* Black-box entry subcircuit for sky130_fd_sc_hd__clkbuf_1 abstract view
.subckt sky130_fd_sc_hd__clkbuf_1 A VGND VNB VPB VPWR X
.ends

* Black-box entry subcircuit for sky130_fd_sc_hd__o21ai_2 abstract view
.subckt sky130_fd_sc_hd__o21ai_2 A1 A2 B1 VGND VNB VPB VPWR Y
.ends

* Black-box entry subcircuit for sky130_fd_sc_hd__nor2_1 abstract view
.subckt sky130_fd_sc_hd__nor2_1 A B VGND VNB VPB VPWR Y
.ends

* Black-box entry subcircuit for sky130_fd_sc_hd__a221o_1 abstract view
.subckt sky130_fd_sc_hd__a221o_1 A1 A2 B1 B2 C1 VGND VNB VPB VPWR X
.ends

* Black-box entry subcircuit for sky130_fd_sc_hd__a211o_1 abstract view
.subckt sky130_fd_sc_hd__a211o_1 A1 A2 B1 C1 VGND VNB VPB VPWR X
.ends

* Black-box entry subcircuit for sky130_fd_sc_hd__or2_1 abstract view
.subckt sky130_fd_sc_hd__or2_1 A B VGND VNB VPB VPWR X
.ends

* Black-box entry subcircuit for sky130_fd_sc_hd__o22a_1 abstract view
.subckt sky130_fd_sc_hd__o22a_1 A1 A2 B1 B2 VGND VNB VPB VPWR X
.ends

* Black-box entry subcircuit for sky130_fd_sc_hd__or2_2 abstract view
.subckt sky130_fd_sc_hd__or2_2 A B VGND VNB VPB VPWR X
.ends

* Black-box entry subcircuit for sky130_fd_sc_hd__a22oi_2 abstract view
.subckt sky130_fd_sc_hd__a22oi_2 A1 A2 B1 B2 VGND VNB VPB VPWR Y
.ends

* Black-box entry subcircuit for sky130_fd_sc_hd__nand4_1 abstract view
.subckt sky130_fd_sc_hd__nand4_1 A B C D VGND VNB VPB VPWR Y
.ends

* Black-box entry subcircuit for sky130_fd_sc_hd__or3_1 abstract view
.subckt sky130_fd_sc_hd__or3_1 A B C VGND VNB VPB VPWR X
.ends

* Black-box entry subcircuit for sky130_fd_sc_hd__buf_1 abstract view
.subckt sky130_fd_sc_hd__buf_1 A VGND VNB VPB VPWR X
.ends

* Black-box entry subcircuit for sky130_fd_sc_hd__clkbuf_2 abstract view
.subckt sky130_fd_sc_hd__clkbuf_2 A VGND VNB VPB VPWR X
.ends

* Black-box entry subcircuit for sky130_fd_sc_hd__and2_2 abstract view
.subckt sky130_fd_sc_hd__and2_2 A B VGND VNB VPB VPWR X
.ends

* Black-box entry subcircuit for sky130_fd_sc_hd__o211a_1 abstract view
.subckt sky130_fd_sc_hd__o211a_1 A1 A2 B1 C1 VGND VNB VPB VPWR X
.ends

* Black-box entry subcircuit for sky130_fd_sc_hd__nor4_1 abstract view
.subckt sky130_fd_sc_hd__nor4_1 A B C D VGND VNB VPB VPWR Y
.ends

* Black-box entry subcircuit for sky130_fd_sc_hd__and4_1 abstract view
.subckt sky130_fd_sc_hd__and4_1 A B C D VGND VNB VPB VPWR X
.ends

* Black-box entry subcircuit for sky130_fd_sc_hd__a31o_1 abstract view
.subckt sky130_fd_sc_hd__a31o_1 A1 A2 A3 B1 VGND VNB VPB VPWR X
.ends

* Black-box entry subcircuit for sky130_fd_sc_hd__nor3_1 abstract view
.subckt sky130_fd_sc_hd__nor3_1 A B C VGND VNB VPB VPWR Y
.ends

* Black-box entry subcircuit for sky130_fd_sc_hd__o21a_1 abstract view
.subckt sky130_fd_sc_hd__o21a_1 A1 A2 B1 VGND VNB VPB VPWR X
.ends

* Black-box entry subcircuit for sky130_fd_sc_hd__clkbuf_4 abstract view
.subckt sky130_fd_sc_hd__clkbuf_4 A VGND VNB VPB VPWR X
.ends

* Black-box entry subcircuit for sky130_fd_sc_hd__and4b_1 abstract view
.subckt sky130_fd_sc_hd__and4b_1 A_N B C D VGND VNB VPB VPWR X
.ends

* Black-box entry subcircuit for sky130_fd_sc_hd__and2b_1 abstract view
.subckt sky130_fd_sc_hd__and2b_1 A_N B VGND VNB VPB VPWR X
.ends

* Black-box entry subcircuit for sky130_fd_sc_hd__o21bai_1 abstract view
.subckt sky130_fd_sc_hd__o21bai_1 A1 A2 B1_N VGND VNB VPB VPWR Y
.ends

* Black-box entry subcircuit for sky130_fd_sc_hd__or3b_2 abstract view
.subckt sky130_fd_sc_hd__or3b_2 A B C_N VGND VNB VPB VPWR X
.ends

* Black-box entry subcircuit for sky130_fd_sc_hd__a21bo_1 abstract view
.subckt sky130_fd_sc_hd__a21bo_1 A1 A2 B1_N VGND VNB VPB VPWR X
.ends

* Black-box entry subcircuit for sky130_fd_sc_hd__dfrtp_4 abstract view
.subckt sky130_fd_sc_hd__dfrtp_4 CLK D RESET_B VGND VNB VPB VPWR Q
.ends

* Black-box entry subcircuit for sky130_fd_sc_hd__nand3_1 abstract view
.subckt sky130_fd_sc_hd__nand3_1 A B C VGND VNB VPB VPWR Y
.ends

* Black-box entry subcircuit for sky130_fd_sc_hd__nand2b_1 abstract view
.subckt sky130_fd_sc_hd__nand2b_1 A_N B VGND VNB VPB VPWR Y
.ends

* Black-box entry subcircuit for sky130_fd_sc_hd__a21boi_1 abstract view
.subckt sky130_fd_sc_hd__a21boi_1 A1 A2 B1_N VGND VNB VPB VPWR Y
.ends

* Black-box entry subcircuit for sky130_fd_sc_hd__o2bb2a_1 abstract view
.subckt sky130_fd_sc_hd__o2bb2a_1 A1_N A2_N B1 B2 VGND VNB VPB VPWR X
.ends

* Black-box entry subcircuit for sky130_fd_sc_hd__o311a_1 abstract view
.subckt sky130_fd_sc_hd__o311a_1 A1 A2 A3 B1 C1 VGND VNB VPB VPWR X
.ends

* Black-box entry subcircuit for sky130_fd_sc_hd__and4bb_1 abstract view
.subckt sky130_fd_sc_hd__and4bb_1 A_N B_N C D VGND VNB VPB VPWR X
.ends

* Black-box entry subcircuit for sky130_fd_sc_hd__o32a_1 abstract view
.subckt sky130_fd_sc_hd__o32a_1 A1 A2 A3 B1 B2 VGND VNB VPB VPWR X
.ends

* Black-box entry subcircuit for sky130_fd_sc_hd__inv_8 abstract view
.subckt sky130_fd_sc_hd__inv_8 A VGND VNB VPB VPWR Y
.ends

* Black-box entry subcircuit for sky130_fd_sc_hd__dfrtp_1 abstract view
.subckt sky130_fd_sc_hd__dfrtp_1 CLK D RESET_B VGND VNB VPB VPWR Q
.ends

* Black-box entry subcircuit for sky130_fd_sc_hd__buf_4 abstract view
.subckt sky130_fd_sc_hd__buf_4 A VGND VNB VPB VPWR X
.ends

* Black-box entry subcircuit for sky130_fd_sc_hd__inv_6 abstract view
.subckt sky130_fd_sc_hd__inv_6 A VGND VNB VPB VPWR Y
.ends

* Black-box entry subcircuit for sky130_fd_sc_hd__o311ai_2 abstract view
.subckt sky130_fd_sc_hd__o311ai_2 A1 A2 A3 B1 C1 VGND VNB VPB VPWR Y
.ends

* Black-box entry subcircuit for sky130_fd_sc_hd__a311o_1 abstract view
.subckt sky130_fd_sc_hd__a311o_1 A1 A2 A3 B1 C1 VGND VNB VPB VPWR X
.ends

* Black-box entry subcircuit for sky130_fd_sc_hd__a2bb2o_1 abstract view
.subckt sky130_fd_sc_hd__a2bb2o_1 A1_N A2_N B1 B2 VGND VNB VPB VPWR X
.ends

* Black-box entry subcircuit for sky130_fd_sc_hd__or3_2 abstract view
.subckt sky130_fd_sc_hd__or3_2 A B C VGND VNB VPB VPWR X
.ends

* Black-box entry subcircuit for sky130_fd_sc_hd__or2_4 abstract view
.subckt sky130_fd_sc_hd__or2_4 A B VGND VNB VPB VPWR X
.ends

* Black-box entry subcircuit for sky130_fd_sc_hd__clkinv_2 abstract view
.subckt sky130_fd_sc_hd__clkinv_2 A VGND VNB VPB VPWR Y
.ends

* Black-box entry subcircuit for sky130_fd_sc_hd__clkinv_8 abstract view
.subckt sky130_fd_sc_hd__clkinv_8 A VGND VNB VPB VPWR Y
.ends

* Black-box entry subcircuit for sky130_fd_sc_hd__dlymetal6s2s_1 abstract view
.subckt sky130_fd_sc_hd__dlymetal6s2s_1 A VGND VNB VPB VPWR X
.ends

* Black-box entry subcircuit for sky130_fd_sc_hd__a32o_1 abstract view
.subckt sky130_fd_sc_hd__a32o_1 A1 A2 A3 B1 B2 VGND VNB VPB VPWR X
.ends

* Black-box entry subcircuit for sky130_fd_sc_hd__clkinvlp_4 abstract view
.subckt sky130_fd_sc_hd__clkinvlp_4 A VGND VNB VPB VPWR Y
.ends

* Black-box entry subcircuit for sky130_fd_sc_hd__o211ai_1 abstract view
.subckt sky130_fd_sc_hd__o211ai_1 A1 A2 B1 C1 VGND VNB VPB VPWR Y
.ends

* Black-box entry subcircuit for sky130_fd_sc_hd__clkbuf_16 abstract view
.subckt sky130_fd_sc_hd__clkbuf_16 A VGND VNB VPB VPWR X
.ends

* Black-box entry subcircuit for sky130_fd_sc_hd__bufinv_16 abstract view
.subckt sky130_fd_sc_hd__bufinv_16 A VGND VNB VPB VPWR Y
.ends

* Black-box entry subcircuit for sky130_fd_sc_hd__inv_12 abstract view
.subckt sky130_fd_sc_hd__inv_12 A VGND VNB VPB VPWR Y
.ends

* Black-box entry subcircuit for sky130_fd_sc_hd__or3b_1 abstract view
.subckt sky130_fd_sc_hd__or3b_1 A B C_N VGND VNB VPB VPWR X
.ends

* Black-box entry subcircuit for sky130_fd_sc_hd__dfstp_1 abstract view
.subckt sky130_fd_sc_hd__dfstp_1 CLK D SET_B VGND VNB VPB VPWR Q
.ends

* Black-box entry subcircuit for sky130_fd_sc_hd__a41o_1 abstract view
.subckt sky130_fd_sc_hd__a41o_1 A1 A2 A3 A4 B1 VGND VNB VPB VPWR X
.ends

* Black-box entry subcircuit for sky130_fd_sc_hd__a31oi_1 abstract view
.subckt sky130_fd_sc_hd__a31oi_1 A1 A2 A3 B1 VGND VNB VPB VPWR Y
.ends

* Black-box entry subcircuit for sky130_fd_sc_hd__o211ai_2 abstract view
.subckt sky130_fd_sc_hd__o211ai_2 A1 A2 B1 C1 VGND VNB VPB VPWR Y
.ends

* Black-box entry subcircuit for sky130_fd_sc_hd__o31ai_1 abstract view
.subckt sky130_fd_sc_hd__o31ai_1 A1 A2 A3 B1 VGND VNB VPB VPWR Y
.ends

* Black-box entry subcircuit for sky130_fd_sc_hd__clkinv_4 abstract view
.subckt sky130_fd_sc_hd__clkinv_4 A VGND VNB VPB VPWR Y
.ends

* Black-box entry subcircuit for sky130_fd_sc_hd__nand3_2 abstract view
.subckt sky130_fd_sc_hd__nand3_2 A B C VGND VNB VPB VPWR Y
.ends

* Black-box entry subcircuit for sky130_fd_sc_hd__o31a_1 abstract view
.subckt sky130_fd_sc_hd__o31a_1 A1 A2 A3 B1 VGND VNB VPB VPWR X
.ends

* Black-box entry subcircuit for sky130_fd_sc_hd__a21oi_2 abstract view
.subckt sky130_fd_sc_hd__a21oi_2 A1 A2 B1 VGND VNB VPB VPWR Y
.ends

* Black-box entry subcircuit for sky130_fd_sc_hd__o2111a_1 abstract view
.subckt sky130_fd_sc_hd__o2111a_1 A1 A2 B1 C1 D1 VGND VNB VPB VPWR X
.ends

* Black-box entry subcircuit for sky130_fd_sc_hd__o22a_4 abstract view
.subckt sky130_fd_sc_hd__o22a_4 A1 A2 B1 B2 VGND VNB VPB VPWR X
.ends

* Black-box entry subcircuit for sky130_fd_sc_hd__conb_1 abstract view
.subckt sky130_fd_sc_hd__conb_1 VGND VNB VPB VPWR HI LO
.ends

* Black-box entry subcircuit for sky130_fd_sc_hd__and4b_4 abstract view
.subckt sky130_fd_sc_hd__and4b_4 A_N B C D VGND VNB VPB VPWR X
.ends

* Black-box entry subcircuit for sky130_fd_sc_hd__a32oi_2 abstract view
.subckt sky130_fd_sc_hd__a32oi_2 A1 A2 A3 B1 B2 VGND VNB VPB VPWR Y
.ends

* Black-box entry subcircuit for sky130_fd_sc_hd__a211oi_1 abstract view
.subckt sky130_fd_sc_hd__a211oi_1 A1 A2 B1 C1 VGND VNB VPB VPWR Y
.ends

* Black-box entry subcircuit for sky130_fd_sc_hd__o2111ai_1 abstract view
.subckt sky130_fd_sc_hd__o2111ai_1 A1 A2 B1 C1 D1 VGND VNB VPB VPWR Y
.ends

* Black-box entry subcircuit for sky130_fd_sc_hd__and3b_1 abstract view
.subckt sky130_fd_sc_hd__and3b_1 A_N B C VGND VNB VPB VPWR X
.ends

* Black-box entry subcircuit for sky130_fd_sc_hd__dfrtp_2 abstract view
.subckt sky130_fd_sc_hd__dfrtp_2 CLK D RESET_B VGND VNB VPB VPWR Q
.ends

* Black-box entry subcircuit for sky130_fd_sc_hd__o221ai_1 abstract view
.subckt sky130_fd_sc_hd__o221ai_1 A1 A2 B1 B2 C1 VGND VNB VPB VPWR Y
.ends

* Black-box entry subcircuit for sky130_fd_sc_hd__or4b_1 abstract view
.subckt sky130_fd_sc_hd__or4b_1 A B C D_N VGND VNB VPB VPWR X
.ends

* Black-box entry subcircuit for sky130_fd_sc_hd__nand3_4 abstract view
.subckt sky130_fd_sc_hd__nand3_4 A B C VGND VNB VPB VPWR Y
.ends

* Black-box entry subcircuit for sky130_fd_sc_hd__or4_1 abstract view
.subckt sky130_fd_sc_hd__or4_1 A B C D VGND VNB VPB VPWR X
.ends

* Black-box entry subcircuit for sky130_fd_sc_hd__or4b_4 abstract view
.subckt sky130_fd_sc_hd__or4b_4 A B C D_N VGND VNB VPB VPWR X
.ends

* Black-box entry subcircuit for sky130_fd_sc_hd__diode_2 abstract view
.subckt sky130_fd_sc_hd__diode_2 DIODE VGND VNB VPB VPWR
.ends

* Black-box entry subcircuit for sky130_fd_sc_hd__o2111ai_2 abstract view
.subckt sky130_fd_sc_hd__o2111ai_2 A1 A2 B1 C1 D1 VGND VNB VPB VPWR Y
.ends

* Black-box entry subcircuit for sky130_fd_sc_hd__nor4b_1 abstract view
.subckt sky130_fd_sc_hd__nor4b_1 A B C D_N VGND VNB VPB VPWR Y
.ends

* Black-box entry subcircuit for sky130_fd_sc_hd__o21bai_2 abstract view
.subckt sky130_fd_sc_hd__o21bai_2 A1 A2 B1_N VGND VNB VPB VPWR Y
.ends

* Black-box entry subcircuit for sky130_fd_sc_hd__o221a_1 abstract view
.subckt sky130_fd_sc_hd__o221a_1 A1 A2 B1 B2 C1 VGND VNB VPB VPWR X
.ends

.subckt matrix_multiplier VGND VPWR cs hz100 miso mosi ready spi_clk
X_3155_ net127 net116 VGND VGND VPWR VPWR _0035_ sky130_fd_sc_hd__and2_1
X_3086_ net585 net73 net25 VGND VGND VPWR VPWR _0504_ sky130_fd_sc_hd__mux2_1
XFILLER_54_214 VGND VGND VPWR VPWR sky130_fd_sc_hd__fill_1
XTAP_TAPCELL_ROW_65_732 VGND VPWR sky130_fd_sc_hd__tapvpwrvgnd_1
X_2106_ net240 net242 net249 VGND VGND VPWR VPWR _0906_ sky130_fd_sc_hd__and3_1
X_2037_ _0837_ _0839_ _0828_ VGND VGND VPWR VPWR _0840_ sky130_fd_sc_hd__a21oi_1
XTAP_TAPCELL_ROW_37_489 VGND VPWR sky130_fd_sc_hd__tapvpwrvgnd_1
XFILLER_22_122 VGND VGND VPWR VPWR sky130_fd_sc_hd__decap_8
XFILLER_52_29 VGND VGND VPWR VPWR sky130_fd_sc_hd__fill_1
XFILLER_10_306 VGND VGND VPWR VPWR sky130_fd_sc_hd__fill_2
XFILLER_50_475 VGND VGND VPWR VPWR sky130_fd_sc_hd__fill_1
XFILLER_22_188 VGND VGND VPWR VPWR sky130_fd_sc_hd__decap_8
X_2939_ net460 net87 net40 VGND VGND VPWR VPWR _0364_ sky130_fd_sc_hd__mux2_1
XTAP_TAPCELL_ROW_20_345 VGND VPWR sky130_fd_sc_hd__tapvpwrvgnd_1
Xhold340 matmult_inst.alu_inst.adder_inst.r3.fa1.a VGND VGND VPWR VPWR net634 sky130_fd_sc_hd__dlygate4sd3_1
Xhold351 matmult_inst.alu_inst.adder_inst.r0.fa2.a VGND VGND VPWR VPWR net645 sky130_fd_sc_hd__dlygate4sd3_1
XFILLER_77_15 VPWR VGND VPWR VGND sky130_ef_sc_hd__decap_12
XFILLER_77_306 VGND VGND VPWR VPWR sky130_fd_sc_hd__decap_3
XTAP_TAPCELL_ROW_28_412 VGND VPWR sky130_fd_sc_hd__tapvpwrvgnd_1
XFILLER_26_41 VPWR VGND VPWR VGND sky130_ef_sc_hd__decap_12
XFILLER_26_96 VPWR VGND VPWR VGND sky130_ef_sc_hd__decap_12
XTAP_TAPCELL_ROW_71_779 VGND VPWR sky130_fd_sc_hd__tapvpwrvgnd_1
XFILLER_9_137 VPWR VGND VPWR VGND sky130_ef_sc_hd__decap_12
XFILLER_42_62 VGND VGND VPWR VPWR sky130_fd_sc_hd__fill_1
XPHY_EDGE_ROW_39_Left_121 VGND VGND VPWR VPWR sky130_fd_sc_hd__decap_3
Xclkbuf_leaf_12_hz100 clknet_2_3__leaf_hz100 VGND VGND VPWR VPWR clknet_leaf_12_hz100
+ sky130_fd_sc_hd__clkbuf_8
XTAP_TAPCELL_ROW_79_846 VGND VPWR sky130_fd_sc_hd__tapvpwrvgnd_1
Xclkbuf_leaf_27_hz100 clknet_2_0__leaf_hz100 VGND VGND VPWR VPWR clknet_leaf_27_hz100
+ sky130_fd_sc_hd__clkbuf_8
XPHY_EDGE_ROW_48_Left_130 VGND VGND VPWR VPWR sky130_fd_sc_hd__decap_3
XTAP_TAPCELL_ROW_62_702 VGND VPWR sky130_fd_sc_hd__tapvpwrvgnd_1
X_2724_ _1438_ _1465_ VGND VGND VPWR VPWR _1466_ sky130_fd_sc_hd__xor2_1
X_2655_ _1398_ _1399_ _1387_ VGND VGND VPWR VPWR _1400_ sky130_fd_sc_hd__a21o_1
X_2586_ _1332_ VGND VGND VPWR VPWR _1333_ sky130_fd_sc_hd__inv_2
Xfanout127 _0546_ VGND VGND VPWR VPWR net127 sky130_fd_sc_hd__buf_2
Xfanout116 net126 VGND VGND VPWR VPWR net116 sky130_fd_sc_hd__buf_2
XFILLER_67_361 VGND VGND VPWR VPWR sky130_fd_sc_hd__decap_4
X_3207_ net131 net120 VGND VGND VPWR VPWR _0096_ sky130_fd_sc_hd__and2_1
X_3138_ net129 net119 VGND VGND VPWR VPWR _0087_ sky130_fd_sc_hd__and2_1
X_3069_ net393 net71 net28 VGND VGND VPWR VPWR _0488_ sky130_fd_sc_hd__mux2_1
XFILLER_23_486 VGND VGND VPWR VPWR sky130_fd_sc_hd__fill_1
XFILLER_50_261 VGND VGND VPWR VPWR sky130_fd_sc_hd__decap_3
XFILLER_2_357 VGND VGND VPWR VPWR sky130_fd_sc_hd__decap_6
Xhold170 matmult_inst.mem_inst.matrixB0\[5\] VGND VGND VPWR VPWR net464 sky130_fd_sc_hd__dlygate4sd3_1
Xhold192 matmult_inst.alu_inst.out\[13\] VGND VGND VPWR VPWR net486 sky130_fd_sc_hd__dlygate4sd3_1
Xhold181 matmult_inst.mem_inst.matrixA1\[0\] VGND VGND VPWR VPWR net475 sky130_fd_sc_hd__dlygate4sd3_1
XFILLER_77_125 VPWR VGND VPWR VGND sky130_ef_sc_hd__decap_12
XFILLER_77_169 VPWR VGND VPWR VGND sky130_ef_sc_hd__decap_12
XFILLER_33_217 VGND VGND VPWR VPWR sky130_fd_sc_hd__decap_6
XFILLER_26_291 VGND VGND VPWR VPWR sky130_fd_sc_hd__fill_2
X_2440_ net228 net226 net208 net209 VGND VGND VPWR VPWR _1191_ sky130_fd_sc_hd__nand4_2
X_2371_ _1155_ net588 _1152_ VGND VGND VPWR VPWR _0227_ sky130_fd_sc_hd__mux2_1
XTAP_TAPCELL_ROW_39_507 VGND VPWR sky130_fd_sc_hd__tapvpwrvgnd_1
XFILLER_49_350 VGND VGND VPWR VPWR sky130_fd_sc_hd__fill_1
XFILLER_24_217 VGND VGND VPWR VPWR sky130_fd_sc_hd__fill_1
XTAP_TAPCELL_ROW_47_573 VGND VPWR sky130_fd_sc_hd__tapvpwrvgnd_1
XFILLER_20_456 VGND VGND VPWR VPWR sky130_fd_sc_hd__decap_4
X_2707_ _1412_ _1449_ VGND VGND VPWR VPWR _1450_ sky130_fd_sc_hd__xnor2_1
X_2638_ net222 net202 _1347_ _1349_ VGND VGND VPWR VPWR _1383_ sky130_fd_sc_hd__a22oi_1
X_2569_ net209 net220 net218 net212 VGND VGND VPWR VPWR _1316_ sky130_fd_sc_hd__a22o_1
XFILLER_74_139 VGND VGND VPWR VPWR sky130_fd_sc_hd__fill_1
XFILLER_74_27 VGND VGND VPWR VPWR sky130_fd_sc_hd__fill_1
XTAP_TAPCELL_ROW_81_874 VGND VPWR sky130_fd_sc_hd__tapvpwrvgnd_1
XTAP_TAPCELL_ROW_81_863 VGND VPWR sky130_fd_sc_hd__tapvpwrvgnd_1
XFILLER_23_20 VGND VGND VPWR VPWR sky130_fd_sc_hd__decap_4
XFILLER_7_405 VPWR VGND VPWR VGND sky130_ef_sc_hd__decap_12
XFILLER_7_449 VPWR VGND VPWR VGND sky130_ef_sc_hd__decap_12
XFILLER_23_86 VGND VGND VPWR VPWR sky130_fd_sc_hd__fill_2
XFILLER_2_121 VPWR VGND VPWR VGND sky130_ef_sc_hd__decap_12
XFILLER_2_165 VPWR VGND VPWR VGND sky130_ef_sc_hd__decap_12
XFILLER_78_445 VPWR VGND VPWR VGND sky130_ef_sc_hd__decap_12
XFILLER_38_309 VGND VGND VPWR VPWR sky130_fd_sc_hd__decap_6
XFILLER_46_331 VGND VGND VPWR VPWR sky130_fd_sc_hd__fill_1
XFILLER_80_109 VPWR VGND VPWR VGND sky130_ef_sc_hd__decap_12
XFILLER_0_57 VPWR VGND VPWR VGND sky130_ef_sc_hd__decap_12
XFILLER_46_375 VGND VGND VPWR VPWR sky130_fd_sc_hd__decap_3
XFILLER_73_161 VGND VGND VPWR VPWR sky130_fd_sc_hd__fill_1
XFILLER_61_334 VGND VGND VPWR VPWR sky130_fd_sc_hd__fill_2
XFILLER_64_82 VGND VGND VPWR VPWR sky130_fd_sc_hd__fill_2
XFILLER_73_194 VGND VGND VPWR VPWR sky130_fd_sc_hd__decap_3
XTAP_TAPCELL_ROW_44_554 VGND VPWR sky130_fd_sc_hd__tapvpwrvgnd_1
XFILLER_14_250 VGND VGND VPWR VPWR sky130_fd_sc_hd__fill_2
X_1940_ matmult_inst.spi_inst.tx_reg_sys\[6\] matmult_inst.spi_inst.miso_shifter\[5\]
+ net276 VGND VGND VPWR VPWR _0019_ sky130_fd_sc_hd__mux2_1
XFILLER_9_55 VGND VGND VPWR VPWR sky130_fd_sc_hd__fill_1
X_1871_ net271 net263 matmult_inst.mem_inst.mem3\[0\] VGND VGND VPWR VPWR _0742_ sky130_fd_sc_hd__and3_1
X_3610_ clknet_leaf_19_hz100 _0470_ VGND VGND VPWR VPWR matmult_inst.mem_inst.matrixA3\[16\]
+ sky130_fd_sc_hd__dfxtp_1
X_3541_ clknet_leaf_26_hz100 _0401_ VGND VGND VPWR VPWR matmult_inst.mem_inst.matrixA0\[1\]
+ sky130_fd_sc_hd__dfxtp_1
XFILLER_50_3 VGND VGND VPWR VPWR sky130_fd_sc_hd__decap_8
X_3472_ clknet_leaf_8_hz100 _0332_ VGND VGND VPWR VPWR matmult_inst.mem_inst.mem0\[4\]
+ sky130_fd_sc_hd__dfxtp_1
X_2423_ _1168_ _1174_ net161 VGND VGND VPWR VPWR _1176_ sky130_fd_sc_hd__o21ai_1
X_2354_ _0791_ _1142_ net199 VGND VGND VPWR VPWR _1143_ sky130_fd_sc_hd__o21ba_1
X_2285_ _1057_ _1079_ VGND VGND VPWR VPWR _1080_ sky130_fd_sc_hd__nand2_1
XFILLER_20_253 VGND VGND VPWR VPWR sky130_fd_sc_hd__decap_6
XFILLER_4_419 VGND VGND VPWR VPWR sky130_fd_sc_hd__fill_1
XTAP_TAPCELL_ROW_7_235 VGND VPWR sky130_fd_sc_hd__tapvpwrvgnd_1
XTAP_TAPCELL_ROW_58_668 VGND VPWR sky130_fd_sc_hd__tapvpwrvgnd_1
XTAP_TAPCELL_ROW_41_524 VGND VPWR sky130_fd_sc_hd__tapvpwrvgnd_1
XFILLER_43_389 VGND VGND VPWR VPWR sky130_fd_sc_hd__decap_3
XFILLER_70_175 VPWR VGND VPWR VGND sky130_ef_sc_hd__decap_12
XFILLER_70_197 VGND VGND VPWR VPWR sky130_fd_sc_hd__decap_3
XFILLER_11_264 VPWR VGND VPWR VGND sky130_ef_sc_hd__decap_12
XFILLER_11_242 VGND VGND VPWR VPWR sky130_fd_sc_hd__fill_1
Xwire111 _1107_ VGND VGND VPWR VPWR net111 sky130_fd_sc_hd__clkbuf_1
Xwire100 net102 VGND VGND VPWR VPWR net100 sky130_fd_sc_hd__clkbuf_1
XFILLER_7_279 VGND VGND VPWR VPWR sky130_fd_sc_hd__fill_1
XFILLER_3_441 VGND VGND VPWR VPWR sky130_fd_sc_hd__decap_6
XFILLER_3_485 VGND VGND VPWR VPWR sky130_fd_sc_hd__fill_2
XFILLER_66_404 VGND VGND VPWR VPWR sky130_fd_sc_hd__decap_8
X_2070_ _0853_ _0854_ _0855_ VGND VGND VPWR VPWR _0871_ sky130_fd_sc_hd__o21ai_2
XFILLER_38_139 VGND VGND VPWR VPWR sky130_fd_sc_hd__fill_1
X_2972_ net320 net73 net37 VGND VGND VPWR VPWR _0396_ sky130_fd_sc_hd__mux2_1
X_1923_ _0766_ _0784_ VGND VGND VPWR VPWR _0791_ sky130_fd_sc_hd__nor2_1
X_1854_ net267 net260 matmult_inst.mem_inst.matrixA3\[2\] VGND VGND VPWR VPWR _0727_
+ sky130_fd_sc_hd__and3_1
XTAP_TAPCELL_ROW_12_281 VGND VPWR sky130_fd_sc_hd__tapvpwrvgnd_1
X_1785_ matmult_inst.mem_inst.matrixB2\[8\] net191 net183 matmult_inst.mem_inst.matrixB1\[8\]
+ _0663_ VGND VGND VPWR VPWR _0664_ sky130_fd_sc_hd__a221o_1
X_3524_ clknet_leaf_24_hz100 _0384_ VGND VGND VPWR VPWR matmult_inst.mem_inst.mem3\[2\]
+ sky130_fd_sc_hd__dfxtp_1
X_3455_ clknet_leaf_30_hz100 _0315_ VGND VGND VPWR VPWR matmult_inst.alu_inst.a0_reg\[7\]
+ sky130_fd_sc_hd__dfxtp_1
X_2406_ _1156_ net579 net64 VGND VGND VPWR VPWR _0252_ sky130_fd_sc_hd__mux2_1
X_3386_ clknet_leaf_29_hz100 _0248_ VGND VGND VPWR VPWR matmult_inst.alu_inst.col0\[7\]
+ sky130_fd_sc_hd__dfxtp_1
X_2337_ net636 _1129_ net159 VGND VGND VPWR VPWR _0219_ sky130_fd_sc_hd__mux2_1
XFILLER_57_404 VGND VGND VPWR VPWR sky130_fd_sc_hd__decap_4
XFILLER_29_128 VGND VGND VPWR VPWR sky130_fd_sc_hd__fill_1
X_2268_ _1042_ _1063_ VGND VGND VPWR VPWR _1064_ sky130_fd_sc_hd__xnor2_1
XFILLER_44_109 VPWR VGND VPWR VGND sky130_ef_sc_hd__decap_12
XFILLER_55_18 VGND VGND VPWR VPWR sky130_fd_sc_hd__decap_8
XFILLER_72_418 VGND VGND VPWR VPWR sky130_fd_sc_hd__fill_2
X_2199_ _0960_ _0962_ _0995_ _0959_ VGND VGND VPWR VPWR _0997_ sky130_fd_sc_hd__a211o_1
XFILLER_52_153 VPWR VGND VPWR VGND sky130_ef_sc_hd__decap_12
XFILLER_40_304 VGND VGND VPWR VPWR sky130_fd_sc_hd__decap_4
XFILLER_40_326 VGND VGND VPWR VPWR sky130_fd_sc_hd__decap_4
XFILLER_40_359 VGND VGND VPWR VPWR sky130_fd_sc_hd__fill_1
XFILLER_0_433 VPWR VGND VPWR VGND sky130_ef_sc_hd__decap_12
XFILLER_0_477 VGND VGND VPWR VPWR sky130_fd_sc_hd__decap_8
Xhold30 matmult_inst.mem_inst.matrixB3\[15\] VGND VGND VPWR VPWR net324 sky130_fd_sc_hd__dlygate4sd3_1
XFILLER_29_52 VGND VGND VPWR VPWR sky130_fd_sc_hd__decap_4
Xhold41 matmult_inst.spi_inst.mosi_data_sync\[6\] VGND VGND VPWR VPWR net335 sky130_fd_sc_hd__dlygate4sd3_1
Xhold74 matmult_inst.mem_inst.matrixB1\[6\] VGND VGND VPWR VPWR net368 sky130_fd_sc_hd__dlygate4sd3_1
Xhold52 matmult_inst.alu_inst.out\[6\] VGND VGND VPWR VPWR net346 sky130_fd_sc_hd__dlygate4sd3_1
Xhold63 matmult_inst.mem_inst.matrixB0\[17\] VGND VGND VPWR VPWR net357 sky130_fd_sc_hd__dlygate4sd3_1
XFILLER_75_223 VGND VGND VPWR VPWR sky130_fd_sc_hd__fill_1
Xhold96 matmult_inst.mem_inst.matrixA3\[2\] VGND VGND VPWR VPWR net390 sky130_fd_sc_hd__dlygate4sd3_1
Xhold85 matmult_inst.alu_inst.row1\[5\] VGND VGND VPWR VPWR net379 sky130_fd_sc_hd__dlygate4sd3_1
XFILLER_75_278 VGND VGND VPWR VPWR sky130_fd_sc_hd__fill_2
XTAP_TAPCELL_ROW_18_329 VGND VPWR sky130_fd_sc_hd__tapvpwrvgnd_1
XFILLER_31_315 VGND VGND VPWR VPWR sky130_fd_sc_hd__fill_1
XFILLER_43_153 VPWR VGND VPWR VGND sky130_ef_sc_hd__decap_12
XTAP_TAPCELL_ROW_26_395 VGND VPWR sky130_fd_sc_hd__tapvpwrvgnd_1
XPHY_EDGE_ROW_20_Left_102 VGND VGND VPWR VPWR sky130_fd_sc_hd__decap_3
XFILLER_61_72 VPWR VGND VPWR VGND sky130_ef_sc_hd__decap_12
XFILLER_3_293 VPWR VGND VPWR VGND sky130_ef_sc_hd__decap_12
X_3240_ clknet_leaf_26_hz100 net451 VGND VGND VPWR VPWR matmult_inst.fsm_inst.alu_result\[15\]
+ sky130_fd_sc_hd__dfxtp_1
X_3171_ net136 net124 VGND VGND VPWR VPWR _0051_ sky130_fd_sc_hd__and2_1
XFILLER_13_3 VPWR VGND VPWR VGND sky130_ef_sc_hd__decap_12
X_2122_ _0919_ _0921_ VGND VGND VPWR VPWR _0922_ sky130_fd_sc_hd__xor2_1
XFILLER_81_204 VPWR VGND VPWR VGND sky130_ef_sc_hd__decap_12
XFILLER_81_237 VGND VGND VPWR VPWR sky130_fd_sc_hd__decap_4
X_2053_ net241 net254 net252 net243 VGND VGND VPWR VPWR _0855_ sky130_fd_sc_hd__a22o_1
XFILLER_19_194 VGND VGND VPWR VPWR sky130_fd_sc_hd__fill_1
XFILLER_34_175 VGND VGND VPWR VPWR sky130_fd_sc_hd__decap_3
XTAP_TAPCELL_ROW_52_619 VGND VPWR sky130_fd_sc_hd__tapvpwrvgnd_1
XFILLER_62_473 VGND VGND VPWR VPWR sky130_fd_sc_hd__decap_3
XFILLER_34_197 VGND VGND VPWR VPWR sky130_fd_sc_hd__decap_6
X_2955_ net507 net71 net40 VGND VGND VPWR VPWR _0380_ sky130_fd_sc_hd__mux2_1
X_1906_ _0542_ _0544_ VGND VGND VPWR VPWR _0775_ sky130_fd_sc_hd__or2_1
X_2886_ _0541_ _0775_ VGND VGND VPWR VPWR _1573_ sky130_fd_sc_hd__nor2_1
XTAP_TAPCELL_ROW_60_685 VGND VPWR sky130_fd_sc_hd__tapvpwrvgnd_1
X_1837_ net635 _0711_ net91 VGND VGND VPWR VPWR _0145_ sky130_fd_sc_hd__mux2_1
X_1768_ net287 _0646_ _0648_ net279 VGND VGND VPWR VPWR _0649_ sky130_fd_sc_hd__a22o_1
X_3507_ clknet_leaf_18_hz100 _0367_ VGND VGND VPWR VPWR matmult_inst.mem_inst.mem2\[3\]
+ sky130_fd_sc_hd__dfxtp_1
X_1699_ matmult_inst.mem_inst.matrixB2\[16\] net191 net183 matmult_inst.mem_inst.matrixB1\[16\]
+ _0585_ VGND VGND VPWR VPWR _0586_ sky130_fd_sc_hd__a221o_1
X_3438_ clknet_leaf_7_hz100 _0298_ VGND VGND VPWR VPWR matmult_inst.alu_inst.out\[8\]
+ sky130_fd_sc_hd__dfxtp_1
X_3369_ clknet_leaf_25_hz100 _0004_ VGND VGND VPWR VPWR matmult_inst.fsm_inst.rx_ready_edge
+ sky130_fd_sc_hd__dfxtp_1
XTAP_TAPCELL_ROW_68_752 VGND VPWR sky130_fd_sc_hd__tapvpwrvgnd_1
XPHY_EDGE_ROW_11_Left_93 VGND VGND VPWR VPWR sky130_fd_sc_hd__decap_3
XFILLER_80_281 VPWR VGND VPWR VGND sky130_ef_sc_hd__decap_12
XFILLER_13_359 VGND VGND VPWR VPWR sky130_fd_sc_hd__fill_1
XFILLER_25_197 VGND VGND VPWR VPWR sky130_fd_sc_hd__fill_1
XFILLER_40_112 VGND VGND VPWR VPWR sky130_fd_sc_hd__decap_8
XFILLER_15_76 VGND VGND VPWR VPWR sky130_fd_sc_hd__decap_3
XFILLER_40_189 VGND VGND VPWR VPWR sky130_fd_sc_hd__decap_6
XFILLER_16_197 VGND VGND VPWR VPWR sky130_fd_sc_hd__decap_8
XFILLER_31_167 VGND VGND VPWR VPWR sky130_fd_sc_hd__fill_1
XFILLER_72_93 VGND VGND VPWR VPWR sky130_fd_sc_hd__decap_3
X_2740_ net644 net160 _1475_ _1479_ VGND VGND VPWR VPWR _0272_ sky130_fd_sc_hd__o22a_1
X_2671_ _1413_ _1414_ VGND VGND VPWR VPWR _1415_ sky130_fd_sc_hd__nor2_1
XFILLER_8_363 VGND VGND VPWR VPWR sky130_fd_sc_hd__fill_1
X_1622_ _0538_ _0539_ VGND VGND VPWR VPWR _0541_ sky130_fd_sc_hd__or2_2
X_3223_ clknet_leaf_24_hz100 _0001_ VGND VGND VPWR VPWR matmult_inst.fsm_inst.sel\[1\]
+ sky130_fd_sc_hd__dfxtp_1
X_3154_ net127 net116 VGND VGND VPWR VPWR _0034_ sky130_fd_sc_hd__and2_1
XFILLER_39_278 VGND VGND VPWR VPWR sky130_fd_sc_hd__fill_2
X_3085_ net546 net74 net25 VGND VGND VPWR VPWR _0503_ sky130_fd_sc_hd__mux2_1
X_2105_ net240 net250 net249 net242 VGND VGND VPWR VPWR _0905_ sky130_fd_sc_hd__a22oi_2
X_2036_ net239 net258 net255 net241 VGND VGND VPWR VPWR _0839_ sky130_fd_sc_hd__nand4_1
X_2938_ net277 net186 net88 VGND VGND VPWR VPWR _1585_ sky130_fd_sc_hd__and3_1
XTAP_TAPCELL_ROW_20_346 VGND VPWR sky130_fd_sc_hd__tapvpwrvgnd_1
X_2869_ net220 net302 net93 VGND VGND VPWR VPWR _0313_ sky130_fd_sc_hd__mux2_1
Xhold352 matmult_inst.alu_inst.adder_inst.r0.fa0.a VGND VGND VPWR VPWR net646 sky130_fd_sc_hd__dlygate4sd3_1
Xhold330 matmult_inst.alu_inst.adder_inst.r2.fa0.b VGND VGND VPWR VPWR net624 sky130_fd_sc_hd__dlygate4sd3_1
Xhold341 matmult_inst.spi_inst.tx_reg_sys\[4\] VGND VGND VPWR VPWR net635 sky130_fd_sc_hd__dlygate4sd3_1
XFILLER_77_27 VGND VGND VPWR VPWR sky130_fd_sc_hd__decap_8
XFILLER_18_429 VPWR VGND VPWR VGND sky130_ef_sc_hd__decap_12
XTAP_TAPCELL_ROW_28_413 VGND VPWR sky130_fd_sc_hd__tapvpwrvgnd_1
XFILLER_45_204 VPWR VGND VPWR VGND sky130_ef_sc_hd__decap_12
Xclkbuf_leaf_8_hz100 clknet_2_3__leaf_hz100 VGND VGND VPWR VPWR clknet_leaf_8_hz100