*SPEF "ieee 1481-1999"
*DESIGN "matrix_multiplier"
*DATE "23:08:11 Friday December 12, 2025"
*VENDOR "The OpenROAD Project"
*PROGRAM "OpenROAD"
*VERSION "edf00dff99f6c40d67a30c0e22a8191c5d2ed9d6"
*DESIGN_FLOW "NAME_SCOPE LOCAL" "PIN_CAP NONE"
*DIVIDER /
*DELIMITER :
*BUS_DELIMITER []
*T_UNIT 1 NS
*C_UNIT 1 PF
*R_UNIT 1 OHM
*L_UNIT 1 HENRY

*NAME_MAP
*3 cs
*4 hz100
*5 miso
*6 mosi
*7 ready
*8 spi_clk
*9 _0000_
*10 _0001_
*11 _0002_
*12 _0003_
*13 _0004_
*14 _0005_
*15 _0006_
*16 _0007_
*17 _0008_
*18 _0009_
*19 _0010_
*20 _0011_
*21 _0012_
*22 _0013_
*23 _0014_
*24 _0015_
*25 _0016_
*26 _0017_
*27 _0018_
*28 _0019_
*29 _0020_
*30 _0021_
*31 _0022_
*32 _0023_
*33 _0024_
*34 _0025_
*35 _0026_
*36 _0027_
*37 _0028_
*38 _0029_
*39 _0030_
*40 _0031_
*41 _0032_
*42 _0033_
*43 _0034_
*44 _0035_
*45 _0036_
*46 _0037_
*47 _0038_
*48 _0039_
*49 _0040_
*50 _0041_
*51 _0042_
*52 _0043_
*53 _0044_
*54 _0045_
*55 _0046_
*56 _0047_
*57 _0048_
*58 _0049_
*59 _0050_
*60 _0051_
*61 _0052_
*62 _0053_
*63 _0054_
*64 _0055_
*65 _0056_
*66 _0057_
*67 _0058_
*68 _0059_
*69 _0060_
*70 _0061_
*71 _0062_
*72 _0063_
*73 _0064_
*74 _0065_
*75 _0066_
*76 _0067_
*77 _0068_
*78 _0069_
*79 _0070_
*80 _0071_
*81 _0072_
*82 _0073_
*83 _0074_
*84 _0075_
*85 _0076_
*86 _0077_
*87 _0078_
*88 _0079_
*89 _0080_
*90 _0081_
*91 _0082_
*92 _0083_
*93 _0084_
*94 _0085_
*95 _0086_
*96 _0087_
*97 _0088_
*98 _0089_
*99 _0090_
*100 _0091_
*101 _0092_
*102 _0093_
*103 _0094_
*104 _0095_
*105 _0096_
*106 _0097_
*107 _0098_
*108 _0099_
*109 _0100_
*110 _0101_
*111 _0102_
*112 _0103_
*113 _0104_
*114 _0105_
*115 _0106_
*116 _0107_
*117 _0108_
*118 _0109_
*119 _0110_
*120 _0111_
*121 _0112_
*122 _0113_
*123 _0114_
*124 _0115_
*125 _0116_
*126 _0117_
*127 _0118_
*128 _0119_
*129 _0120_
*130 _0121_
*131 _0122_
*132 _0123_
*133 _0124_
*134 _0125_
*135 _0126_
*136 _0127_
*137 _0128_
*138 _0129_
*139 _0130_
*140 _0131_
*141 _0132_
*142 _0133_
*143 _0134_
*144 _0135_
*145 _0136_
*146 _0137_
*147 _0138_
*148 _0139_
*149 _0140_
*150 _0141_
*151 _0142_
*152 _0143_
*153 _0144_
*154 _0145_
*155 _0146_
*156 _0147_
*157 _0148_
*158 _0149_
*159 _0150_
*160 _0151_
*161 _0152_
*162 _0153_
*163 _0154_
*164 _0155_
*165 _0156_
*166 _0157_
*167 _0158_
*168 _0159_
*169 _0160_
*170 _0161_
*171 _0162_
*172 _0163_
*173 _0164_
*174 _0165_
*175 _0166_
*176 _0167_
*177 _0168_
*178 _0169_
*179 _0170_
*180 _0171_
*181 _0172_
*182 _0173_
*183 _0174_
*184 _0175_
*185 _0176_
*186 _0177_
*187 _0178_
*188 _0179_
*189 _0180_
*190 _0181_
*191 _0182_
*192 _0183_
*193 _0184_
*194 _0185_
*195 _0186_
*196 _0187_
*197 _0188_
*198 _0189_
*199 _0190_
*200 _0191_
*201 _0192_
*202 _0193_
*203 _0194_
*204 _0195_
*205 _0196_
*206 _0197_
*207 _0198_
*208 _0199_
*209 _0200_
*210 _0201_
*211 _0202_
*212 _0203_
*213 _0204_
*214 _0205_
*215 _0206_
*216 _0207_
*217 _0208_
*218 _0209_
*219 _0210_
*220 _0211_
*221 _0212_
*222 _0213_
*223 _0214_
*224 _0215_
*225 _0216_
*226 _0217_
*227 _0218_
*228 _0219_
*229 _0220_
*230 _0221_
*231 _0222_
*232 _0223_
*233 _0224_
*234 _0225_
*235 _0226_
*236 _0227_
*237 _0228_
*238 _0229_
*239 _0230_
*240 _0231_
*241 _0232_
*242 _0233_
*243 _0234_
*244 _0235_
*245 _0236_
*246 _0237_
*247 _0238_
*248 _0239_
*249 _0240_
*250 _0241_
*251 _0242_
*252 _0243_
*253 _0244_
*254 _0245_
*255 _0246_
*256 _0247_
*257 _0248_
*258 _0249_
*259 _0250_
*260 _0251_
*261 _0252_
*262 _0253_
*263 _0254_
*264 _0255_
*265 _0256_
*266 _0257_
*267 _0258_
*268 _0259_
*269 _0260_
*270 _0261_
*271 _0262_
*272 _0263_
*273 _0264_
*274 _0265_
*275 _0266_
*276 _0267_
*277 _0268_
*278 _0269_
*279 _0270_
*280 _0271_
*281 _0272_
*282 _0273_
*283 _0274_
*284 _0275_
*285 _0276_
*286 _0277_
*287 _0278_
*288 _0279_
*289 _0280_
*290 _0281_
*291 _0282_
*292 _0283_
*293 _0284_
*294 _0285_
*295 _0286_
*296 _0287_
*297 _0288_
*298 _0289_
*299 _0290_
*300 _0291_
*301 _0292_
*302 _0293_
*303 _0294_
*304 _0295_
*305 _0296_
*306 _0297_
*307 _0298_
*308 _0299_
*309 _0300_
*310 _0301_
*311 _0302_
*312 _0303_
*313 _0304_
*314 _0305_
*315 _0306_
*316 _0307_
*317 _0308_
*318 _0309_
*319 _0310_
*320 _0311_
*321 _0312_
*322 _0313_
*323 _0314_
*324 _0315_
*325 _0316_
*326 _0317_
*327 _0318_
*328 _0319_
*329 _0320_
*330 _0321_
*331 _0322_
*332 _0323_
*333 _0324_
*334 _0325_
*335 _0326_
*336 _0327_
*337 _0328_
*338 _0329_
*339 _0330_
*340 _0331_
*341 _0332_
*342 _0333_
*343 _0334_
*344 _0335_
*345 _0336_
*346 _0337_
*347 _0338_
*348 _0339_
*349 _0340_
*350 _0341_
*351 _0342_
*352 _0343_
*353 _0344_
*354 _0345_
*355 _0346_
*356 _0347_
*357 _0348_
*358 _0349_
*359 _0350_
*360 _0351_
*361 _0352_
*362 _0353_
*363 _0354_
*364 _0355_
*365 _0356_
*366 _0357_
*367 _0358_
*368 _0359_
*369 _0360_
*370 _0361_
*371 _0362_
*372 _0363_
*373 _0364_
*374 _0365_
*375 _0366_
*376 _0367_
*377 _0368_
*378 _0369_
*379 _0370_
*380 _0371_
*381 _0372_
*382 _0373_
*383 _0374_
*384 _0375_
*385 _0376_
*386 _0377_
*387 _0378_
*388 _0379_
*389 _0380_
*390 _0381_
*391 _0382_
*392 _0383_
*393 _0384_
*394 _0385_
*395 _0386_
*396 _0387_
*397 _0388_
*398 _0389_
*399 _0390_
*400 _0391_
*401 _0392_
*402 _0393_
*403 _0394_
*404 _0395_
*405 _0396_
*406 _0397_
*407 _0398_
*408 _0399_
*409 _0400_
*410 _0401_
*411 _0402_
*412 _0403_
*413 _0404_
*414 _0405_
*415 _0406_
*416 _0407_
*417 _0408_
*418 _0409_
*419 _0410_
*420 _0411_
*421 _0412_
*422 _0413_
*423 _0414_
*424 _0415_
*425 _0416_
*426 _0417_
*427 _0418_
*428 _0419_
*429 _0420_
*430 _0421_
*431 _0422_
*432 _0423_
*433 _0424_
*434 _0425_
*435 _0426_
*436 _0427_
*437 _0428_
*438 _0429_
*439 _0430_
*440 _0431_
*441 _0432_
*442 _0433_
*443 _0434_
*444 _0435_
*445 _0436_
*446 _0437_
*447 _0438_
*448 _0439_
*449 _0440_
*450 _0441_
*451 _0442_
*452 _0443_
*453 _0444_
*454 _0445_
*455 _0446_
*456 _0447_
*457 _0448_
*458 _0449_
*459 _0450_
*460 _0451_
*461 _0452_
*462 _0453_
*463 _0454_
*464 _0455_
*465 _0456_
*466 _0457_
*467 _0458_
*468 _0459_
*469 _0460_
*470 _0461_
*471 _0462_
*472 _0463_
*473 _0464_
*474 _0465_
*475 _0466_
*476 _0467_
*477 _0468_
*478 _0469_
*479 _0470_
*480 _0471_
*481 _0472_
*482 _0473_
*483 _0474_
*484 _0475_
*485 _0476_
*486 _0477_
*487 _0478_
*488 _0479_
*489 _0480_
*490 _0481_
*491 _0482_
*492 _0483_
*493 _0484_
*494 _0485_
*495 _0486_
*496 _0487_
*497 _0488_
*498 _0489_
*499 _0490_
*500 _0491_
*501 _0492_
*502 _0493_
*503 _0494_
*504 _0495_
*505 _0496_
*506 _0497_
*507 _0498_
*508 _0499_
*509 _0500_
*510 _0501_
*511 _0502_
*512 _0503_
*513 _0504_
*514 _0505_
*515 _0506_
*516 _0507_
*517 _0508_
*518 _0509_
*519 _0510_
*520 _0511_
*521 _0512_
*522 _0513_
*523 _0514_
*524 _0515_
*525 _0516_
*526 _0517_
*527 _0518_
*528 _0519_
*529 _0520_
*530 _0521_
*531 _0522_
*532 _0523_
*533 _0524_
*534 _0525_
*535 _0526_
*536 _0527_
*537 _0528_
*538 _0529_
*539 _0530_
*540 _0531_
*541 _0532_
*542 _0533_
*543 _0534_
*544 _0535_
*545 _0536_
*546 _0537_
*547 _0538_
*548 _0539_
*549 _0540_
*550 _0541_
*551 _0542_
*552 _0543_
*553 _0544_
*554 _0545_
*555 _0546_
*556 _0547_
*557 _0548_
*558 _0549_
*559 _0550_
*560 _0551_
*561 _0552_
*562 _0553_
*563 _0554_
*564 _0555_
*565 _0556_
*566 _0557_
*567 _0558_
*568 _0559_
*569 _0560_
*570 _0561_
*571 _0562_
*572 _0563_
*573 _0564_
*574 _0565_
*575 _0566_
*576 _0567_
*577 _0568_
*578 _0569_
*579 _0570_
*580 _0571_
*581 _0572_
*582 _0573_
*583 _0574_
*584 _0575_
*585 _0576_
*586 _0577_
*587 _0578_
*588 _0579_
*589 _0580_
*590 _0581_
*591 _0582_
*592 _0583_
*593 _0584_
*594 _0585_
*595 _0586_
*596 _0587_
*597 _0588_
*598 _0589_
*599 _0590_
*600 _0591_
*601 _0592_
*602 _0593_
*603 _0594_
*604 _0595_
*605 _0596_
*606 _0597_
*607 _0598_
*608 _0599_
*609 _0600_
*610 _0601_
*611 _0602_
*612 _0603_
*613 _0604_
*614 _0605_
*615 _0606_
*616 _0607_
*617 _0608_
*618 _0609_
*619 _0610_
*620 _0611_
*621 _0612_
*622 _0613_
*623 _0614_
*624 _0615_
*625 _0616_
*626 _0617_
*627 _0618_
*628 _0619_
*629 _0620_
*630 _0621_
*631 _0622_
*632 _0623_
*633 _0624_
*634 _0625_
*635 _0626_
*636 _0627_
*637 _0628_
*638 _0629_
*639 _0630_
*640 _0631_
*641 _0632_
*642 _0633_
*643 _0634_
*644 _0635_
*645 _0636_
*646 _0637_
*647 _0638_
*648 _0639_
*649 _0640_
*650 _0641_
*651 _0642_
*652 _0643_
*653 _0644_
*654 _0645_
*655 _0646_
*656 _0647_
*657 _0648_
*658 _0649_
*659 _0650_
*660 _0651_
*661 _0652_
*662 _0653_
*663 _0654_
*664 _0655_
*665 _0656_
*666 _0657_
*667 _0658_
*668 _0659_
*669 _0660_
*670 _0661_
*671 _0662_
*672 _0663_
*673 _0664_
*674 _0665_
*675 _0666_
*676 _0667_
*677 _0668_
*678 _0669_
*679 _0670_
*680 _0671_
*681 _0672_
*682 _0673_
*683 _0674_
*684 _0675_
*685 _0676_
*686 _0677_
*687 _0678_
*688 _0679_
*689 _0680_
*690 _0681_
*691 _0682_
*692 _0683_
*693 _0684_
*694 _0685_
*695 _0686_
*696 _0687_
*697 _0688_
*698 _0689_
*699 _0690_
*700 _0691_
*701 _0692_
*702 _0693_
*703 _0694_
*704 _0695_
*705 _0696_
*706 _0697_
*707 _0698_
*708 _0699_
*709 _0700_
*710 _0701_
*711 _0702_
*712 _0703_
*713 _0704_
*714 _0705_
*715 _0706_
*716 _0707_
*717 _0708_
*718 _0709_
*719 _0710_
*720 _0711_
*721 _0712_
*722 _0713_
*723 _0714_
*724 _0715_
*725 _0716_
*726 _0717_
*727 _0718_
*728 _0719_
*729 _0720_
*730 _0721_
*731 _0722_
*732 _0723_
*733 _0724_
*734 _0725_
*735 _0726_
*736 _0727_
*737 _0728_
*738 _0729_
*739 _0730_
*740 _0731_
*741 _0732_
*742 _0733_
*743 _0734_
*744 _0735_
*745 _0736_
*746 _0737_
*747 _0738_
*748 _0739_
*749 _0740_
*750 _0741_
*751 _0742_
*752 _0743_
*753 _0744_
*754 _0745_
*755 _0746_
*756 _0747_
*757 _0748_
*758 _0749_
*759 _0750_
*760 _0751_
*761 _0752_
*762 _0753_
*763 _0754_
*764 _0755_
*765 _0756_
*766 _0757_
*767 _0758_
*768 _0759_
*769 _0760_
*770 _0761_
*771 _0762_
*772 _0763_
*773 _0764_
*774 _0765_
*775 _0766_
*776 _0767_
*777 _0768_
*778 _0769_
*779 _0770_
*780 _0771_
*781 _0772_
*782 _0773_
*783 _0774_
*784 _0775_
*785 _0776_
*786 _0777_
*787 _0778_
*788 _0779_
*789 _0780_
*790 _0781_
*791 _0782_
*792 _0783_
*793 _0784_
*794 _0785_
*795 _0786_
*796 _0787_
*797 _0788_
*798 _0789_
*799 _0790_
*800 _0791_
*801 _0792_
*802 _0793_
*803 _0794_
*804 _0795_
*805 _0796_
*806 _0797_
*807 _0798_
*808 _0799_
*809 _0800_
*810 _0801_
*811 _0802_
*812 _0803_
*813 _0804_
*814 _0805_
*815 _0806_
*816 _0807_
*817 _0808_
*818 _0809_
*819 _0810_
*820 _0811_
*821 _0812_
*822 _0813_
*823 _0814_
*824 _0815_
*825 _0816_
*826 _0817_
*827 _0818_
*828 _0819_
*829 _0820_
*830 _0821_
*831 _0822_
*832 _0823_
*833 _0824_
*834 _0825_
*835 _0826_
*836 _0827_
*837 _0828_
*838 _0829_
*839 _0830_
*840 _0831_
*841 _0832_
*842 _0833_
*843 _0834_
*844 _0835_
*845 _0836_
*846 _0837_
*847 _0838_
*848 _0839_
*849 _0840_
*850 _0841_
*851 _0842_
*852 _0843_
*853 _0844_
*854 _0845_
*855 _0846_
*856 _0847_
*857 _0848_
*858 _0849_
*859 _0850_
*860 _0851_
*861 _0852_
*862 _0853_
*863 _0854_
*864 _0855_
*865 _0856_
*866 _0857_
*867 _0858_
*868 _0859_
*869 _0860_
*870 _0861_
*871 _0862_
*872 _0863_
*873 _0864_
*874 _0865_
*875 _0866_
*876 _0867_
*877 _0868_
*878 _0869_
*879 _0870_
*880 _0871_
*881 _0872_
*882 _0873_
*883 _0874_
*884 _0875_
*885 _0876_
*886 _0877_
*887 _0878_
*888 _0879_
*889 _0880_
*890 _0881_
*891 _0882_
*892 _0883_
*893 _0884_
*894 _0885_
*895 _0886_
*896 _0887_
*897 _0888_
*898 _0889_
*899 _0890_
*900 _0891_
*901 _0892_
*902 _0893_
*903 _0894_
*904 _0895_
*905 _0896_
*906 _0897_
*907 _0898_
*908 _0899_
*909 _0900_
*910 _0901_
*911 _0902_
*912 _0903_
*913 _0904_
*914 _0905_
*915 _0906_
*916 _0907_
*917 _0908_
*918 _0909_
*919 _0910_
*920 _0911_
*921 _0912_
*922 _0913_
*923 _0914_
*924 _0915_
*925 _0916_
*926 _0917_
*927 _0918_
*928 _0919_
*929 _0920_
*930 _0921_
*931 _0922_
*932 _0923_
*933 _0924_
*934 _0925_
*935 _0926_
*936 _0927_
*937 _0928_
*938 _0929_
*939 _0930_
*940 _0931_
*941 _0932_
*942 _0933_
*943 _0934_
*944 _0935_
*945 _0936_
*946 _0937_
*947 _0938_
*948 _0939_
*949 _0940_
*950 _0941_
*951 _0942_
*952 _0943_
*953 _0944_
*954 _0945_
*955 _0946_
*956 _0947_
*957 _0948_
*958 _0949_
*959 _0950_
*960 _0951_
*961 _0952_
*962 _0953_
*963 _0954_
*964 _0955_
*965 _0956_
*966 _0957_
*967 _0958_
*968 _0959_
*969 _0960_
*970 _0961_
*971 _0962_
*972 _0963_
*973 _0964_
*974 _0965_
*975 _0966_
*976 _0967_
*977 _0968_
*978 _0969_
*979 _0970_
*980 _0971_
*981 _0972_
*982 _0973_
*983 _0974_
*984 _0975_
*985 _0976_
*986 _0977_
*987 _0978_
*988 _0979_
*989 _0980_
*990 _0981_
*991 _0982_
*992 _0983_
*993 _0984_
*994 _0985_
*995 _0986_
*996 _0987_
*997 _0988_
*998 _0989_
*999 _0990_
*1000 _0991_
*1001 _0992_
*1002 _0993_
*1003 _0994_
*1004 _0995_
*1005 _0996_
*1006 _0997_
*1007 _0998_
*1008 _0999_
*1009 _1000_
*1010 _1001_
*1011 _1002_
*1012 _1003_
*1013 _1004_
*1014 _1005_
*1015 _1006_
*1016 _1007_
*1017 _1008_
*1018 _1009_
*1019 _1010_
*1020 _1011_
*1021 _1012_
*1022 _1013_
*1023 _1014_
*1024 _1015_
*1025 _1016_
*1026 _1017_
*1027 _1018_
*1028 _1019_
*1029 _1020_
*1030 _1021_
*1031 _1022_
*1032 _1023_
*1033 _1024_
*1034 _1025_
*1035 _1026_
*1036 _1027_
*1037 _1028_
*1038 _1029_
*1039 _1030_
*1040 _1031_
*1041 _1032_
*1042 _1033_
*1043 _1034_
*1044 _1035_
*1045 _1036_
*1046 _1037_
*1047 _1038_
*1048 _1039_
*1049 _1040_
*1050 _1041_
*1051 _1042_
*1052 _1043_
*1053 _1044_
*1054 _1045_
*1055 _1046_
*1056 _1047_
*1057 _1048_
*1058 _1049_
*1059 _1050_
*1060 _1051_
*1061 _1052_
*1062 _1053_
*1063 _1054_
*1064 _1055_
*1065 _1056_
*1066 _1057_
*1067 _1058_
*1068 _1059_
*1069 _1060_
*1070 _1061_
*1071 _1062_
*1072 _1063_
*1073 _1064_
*1074 _1065_
*1075 _1066_
*1076 _1067_
*1077 _1068_
*1078 _1069_
*1079 _1070_
*1080 _1071_
*1081 _1072_
*1082 _1073_
*1083 _1074_
*1084 _1075_
*1085 _1076_
*1086 _1077_
*1087 _1078_
*1088 _1079_
*1089 _1080_
*1090 _1081_
*1091 _1082_
*1092 _1083_
*1093 _1084_
*1094 _1085_
*1095 _1086_
*1096 _1087_
*1097 _1088_
*1098 _1089_
*1099 _1090_
*1100 _1091_
*1101 _1092_
*1102 _1093_
*1103 _1094_
*1104 _1095_
*1105 _1096_
*1106 _1097_
*1107 _1098_
*1108 _1099_
*1109 _1100_
*1110 _1101_
*1111 _1102_
*1112 _1103_
*1113 _1104_
*1114 _1105_
*1115 _1106_
*1116 _1107_
*1117 _1108_
*1118 _1109_
*1119 _1110_
*1120 _1111_
*1121 _1112_
*1122 _1113_
*1123 _1114_
*1124 _1115_
*1125 _1116_
*1126 _1117_
*1127 _1118_
*1128 _1119_
*1129 _1120_
*1130 _1121_
*1131 _1122_
*1132 _1123_
*1133 _1124_
*1134 _1125_
*1135 _1126_
*1136 _1127_
*1137 _1128_
*1138 _1129_
*1139 _1130_
*1140 _1131_
*1141 _1132_
*1142 _1133_
*1143 _1134_
*1144 _1135_
*1145 _1136_
*1146 _1137_
*1147 _1138_
*1148 _1139_
*1149 _1140_
*1150 _1141_
*1151 _1142_
*1152 _1143_
*1153 _1144_
*1154 _1145_
*1155 _1146_
*1156 _1147_
*1157 _1148_
*1158 _1149_
*1159 _1150_
*1160 _1151_
*1161 _1152_
*1162 _1153_
*1163 _1154_
*1164 _1155_
*1165 _1156_
*1166 _1157_
*1167 _1158_
*1168 _1159_
*1169 _1160_
*1170 _1161_
*1171 _1162_
*1172 _1163_
*1173 _1164_
*1174 _1165_
*1175 _1166_
*1176 _1167_
*1177 _1168_
*1178 _1169_
*1179 _1170_
*1180 _1171_
*1181 _1172_
*1182 _1173_
*1183 _1174_
*1184 _1175_
*1185 _1176_
*1186 _1177_
*1187 _1178_
*1188 _1179_
*1189 _1180_
*1190 _1181_
*1191 _1182_
*1192 _1183_
*1193 _1184_
*1194 _1185_
*1195 _1186_
*1196 _1187_
*1197 _1188_
*1198 _1189_
*1199 _1190_
*1200 _1191_
*1201 _1192_
*1202 _1193_
*1203 _1194_
*1204 _1195_
*1205 _1196_
*1206 _1197_
*1207 _1198_
*1208 _1199_
*1209 _1200_
*1210 _1201_
*1211 _1202_
*1212 _1203_
*1213 _1204_
*1214 _1205_
*1215 _1206_
*1216 _1207_
*1217 _1208_
*1218 _1209_
*1219 _1210_
*1220 _1211_
*1221 _1212_
*1222 _1213_
*1223 _1214_
*1224 _1215_
*1225 _1216_
*1226 _1217_
*1227 _1218_
*1228 _1219_
*1229 _1220_
*1230 _1221_
*1231 _1222_
*1232 _1223_
*1233 _1224_
*1234 _1225_
*1235 _1226_
*1236 _1227_
*1237 _1228_
*1238 _1229_
*1239 _1230_
*1240 _1231_
*1241 _1232_
*1242 _1233_
*1243 _1234_
*1244 _1235_
*1245 _1236_
*1246 _1237_
*1247 _1238_
*1248 _1239_
*1249 _1240_
*1250 _1241_
*1251 _1242_
*1252 _1243_
*1253 _1244_
*1254 _1245_
*1255 _1246_
*1256 _1247_
*1257 _1248_
*1258 _1249_
*1259 _1250_
*1260 _1251_
*1261 _1252_
*1262 _1253_
*1263 _1254_
*1264 _1255_
*1265 _1256_
*1266 _1257_
*1267 _1258_
*1268 _1259_
*1269 _1260_
*1270 _1261_
*1271 _1262_
*1272 _1263_
*1273 _1264_
*1274 _1265_
*1275 _1266_
*1276 _1267_
*1277 _1268_
*1278 _1269_
*1279 _1270_
*1280 _1271_
*1281 _1272_
*1282 _1273_
*1283 _1274_
*1284 _1275_
*1285 _1276_
*1286 _1277_
*1287 _1278_
*1288 _1279_
*1289 _1280_
*1290 _1281_
*1291 _1282_
*1292 _1283_
*1293 _1284_
*1294 _1285_
*1295 _1286_
*1296 _1287_
*1297 _1288_
*1298 _1289_
*1299 _1290_
*1300 _1291_
*1301 _1292_
*1302 _1293_
*1303 _1294_
*1304 _1295_
*1305 _1296_
*1306 _1297_
*1307 _1298_
*1308 _1299_
*1309 _1300_
*1310 _1301_
*1311 _1302_
*1312 _1303_
*1313 _1304_
*1314 _1305_
*1315 _1306_
*1316 _1307_
*1317 _1308_
*1318 _1309_
*1319 _1310_
*1320 _1311_
*1321 _1312_
*1322 _1313_
*1323 _1314_
*1324 _1315_
*1325 _1316_
*1326 _1317_
*1327 _1318_
*1328 _1319_
*1329 _1320_
*1330 _1321_
*1331 _1322_
*1332 _1323_
*1333 _1324_
*1334 _1325_
*1335 _1326_
*1336 _1327_
*1337 _1328_
*1338 _1329_
*1339 _1330_
*1340 _1331_
*1341 _1332_
*1342 _1333_
*1343 _1334_
*1344 _1335_
*1345 _1336_
*1346 _1337_
*1347 _1338_
*1348 _1339_
*1349 _1340_
*1350 _1341_
*1351 _1342_
*1352 _1343_
*1353 _1344_
*1354 _1345_
*1355 _1346_
*1356 _1347_
*1357 _1348_
*1358 _1349_
*1359 _1350_
*1360 _1351_
*1361 _1352_
*1362 _1353_
*1363 _1354_
*1364 _1355_
*1365 _1356_
*1366 _1357_
*1367 _1358_
*1368 _1359_
*1369 _1360_
*1370 _1361_
*1371 _1362_
*1372 _1363_
*1373 _1364_
*1374 _1365_
*1375 _1366_
*1376 _1367_
*1377 _1368_
*1378 _1369_
*1379 _1370_
*1380 _1371_
*1381 _1372_
*1382 _1373_
*1383 _1374_
*1384 _1375_
*1385 _1376_
*1386 _1377_
*1387 _1378_
*1388 _1379_
*1389 _1380_
*1390 _1381_
*1391 _1382_
*1392 _1383_
*1393 _1384_
*1394 _1385_
*1395 _1386_
*1396 _1387_
*1397 _1388_
*1398 _1389_
*1399 _1390_
*1400 _1391_
*1401 _1392_
*1402 _1393_
*1403 _1394_
*1404 _1395_
*1405 _1396_
*1406 _1397_
*1407 _1398_
*1408 _1399_
*1409 _1400_
*1410 _1401_
*1411 _1402_
*1412 _1403_
*1413 _1404_
*1414 _1405_
*1415 _1406_
*1416 _1407_
*1417 _1408_
*1418 _1409_
*1419 _1410_
*1420 _1411_
*1421 _1412_
*1422 _1413_
*1423 _1414_
*1424 _1415_
*1425 _1416_
*1426 _1417_
*1427 _1418_
*1428 _1419_
*1429 _1420_
*1430 _1421_
*1431 _1422_
*1432 _1423_
*1433 _1424_
*1434 _1425_
*1435 _1426_
*1436 _1427_
*1437 _1428_
*1438 _1429_
*1439 _1430_
*1440 _1431_
*1441 _1432_
*1442 _1433_
*1443 _1434_
*1444 _1435_
*1445 _1436_
*1446 _1437_
*1447 _1438_
*1448 _1439_
*1449 _1440_
*1450 _1441_
*1451 _1442_
*1452 _1443_
*1453 _1444_
*1454 _1445_
*1455 _1446_
*1456 _1447_
*1457 _1448_
*1458 _1449_
*1459 _1450_
*1460 _1451_
*1461 _1452_
*1462 _1453_
*1463 _1454_
*1464 _1455_
*1465 _1456_
*1466 _1457_
*1467 _1458_
*1468 _1459_
*1469 _1460_
*1470 _1461_
*1471 _1462_
*1472 _1463_
*1473 _1464_
*1474 _1465_
*1475 _1466_
*1476 _1467_
*1477 _1468_
*1478 _1469_
*1479 _1470_
*1480 _1471_
*1481 _1472_
*1482 _1473_
*1483 _1474_
*1484 _1475_
*1485 _1476_
*1486 _1477_
*1487 _1478_
*1488 _1479_
*1489 _1480_
*1490 _1481_
*1491 _1482_
*1492 _1483_
*1493 _1484_
*1494 _1485_
*1495 _1486_
*1496 _1487_
*1497 _1488_
*1498 _1489_
*1499 _1490_
*1500 _1491_
*1501 _1492_
*1502 _1493_
*1503 _1494_
*1504 _1495_
*1505 _1496_
*1506 _1497_
*1507 _1498_
*1508 _1499_
*1509 _1500_
*1510 _1501_
*1511 _1502_
*1512 _1503_
*1513 _1504_
*1514 _1505_
*1515 _1506_
*1516 _1507_
*1517 _1508_
*1518 _1509_
*1519 _1510_
*1520 _1511_
*1521 _1512_
*1522 _1513_
*1523 _1514_
*1524 _1515_
*1525 _1516_
*1526 _1517_
*1527 _1518_
*1528 _1519_
*1529 _1520_
*1530 _1521_
*1531 _1522_
*1532 _1523_
*1533 _1524_
*1534 _1525_
*1535 _1526_
*1536 _1527_
*1537 _1528_
*1538 _1529_
*1539 _1530_
*1540 _1531_
*1541 _1532_
*1542 _1533_
*1543 _1534_
*1544 _1535_
*1545 _1536_
*1546 _1537_
*1547 _1538_
*1548 _1539_
*1549 _1540_
*1550 _1541_
*1551 _1542_
*1552 _1543_
*1553 _1544_
*1554 _1545_
*1555 _1546_
*1556 _1547_
*1557 _1548_
*1558 _1549_
*1559 _1550_
*1560 _1551_
*1561 _1552_
*1562 _1553_
*1563 _1554_
*1564 _1555_
*1565 _1556_
*1566 _1557_
*1567 _1558_
*1568 _1559_
*1569 _1560_
*1570 _1561_
*1571 _1562_
*1572 _1563_
*1573 _1564_
*1574 _1565_
*1575 _1566_
*1576 _1567_
*1577 _1568_
*1578 _1569_
*1579 _1570_
*1580 _1571_
*1581 _1572_
*1582 _1573_
*1583 _1574_
*1584 _1575_
*1585 _1576_
*1586 _1577_
*1587 _1578_
*1588 _1579_
*1589 _1580_
*1590 _1581_
*1591 _1582_
*1592 _1583_
*1593 _1584_
*1594 _1585_
*1595 _1586_
*1596 _1587_
*1597 _1588_
*1598 _1589_
*1599 _1590_
*1600 _1591_
*1601 _1592_
*1602 _1593_
*1603 _1594_
*1604 _1595_
*1605 _1596_
*1606 _1597_
*1607 _1598_
*1608 _1599_
*1609 _1600_
*1610 _1601_
*1611 _1602_
*1612 _1603_
*1613 _1604_
*1614 _1605_
*1615 _1606_
*1616 clknet_0_hz100
*1617 clknet_2_0__leaf_hz100
*1618 clknet_2_1__leaf_hz100
*1619 clknet_2_2__leaf_hz100
*1620 clknet_2_3__leaf_hz100
*1621 clknet_leaf_0_hz100
*1622 clknet_leaf_10_hz100
*1623 clknet_leaf_11_hz100
*1624 clknet_leaf_12_hz100
*1625 clknet_leaf_13_hz100
*1626 clknet_leaf_14_hz100
*1627 clknet_leaf_15_hz100
*1628 clknet_leaf_16_hz100
*1629 clknet_leaf_17_hz100
*1630 clknet_leaf_18_hz100
*1631 clknet_leaf_19_hz100
*1632 clknet_leaf_1_hz100
*1633 clknet_leaf_20_hz100
*1634 clknet_leaf_21_hz100
*1635 clknet_leaf_22_hz100
*1636 clknet_leaf_23_hz100
*1637 clknet_leaf_24_hz100
*1638 clknet_leaf_25_hz100
*1639 clknet_leaf_26_hz100
*1640 clknet_leaf_27_hz100
*1641 clknet_leaf_28_hz100
*1642 clknet_leaf_29_hz100
*1643 clknet_leaf_2_hz100
*1644 clknet_leaf_30_hz100
*1645 clknet_leaf_31_hz100
*1646 clknet_leaf_3_hz100
*1647 clknet_leaf_4_hz100
*1648 clknet_leaf_5_hz100
*1649 clknet_leaf_6_hz100
*1650 clknet_leaf_7_hz100
*1651 clknet_leaf_8_hz100
*1652 clknet_leaf_9_hz100
*1653 matmult_inst\.addr\[0\]
*1654 matmult_inst\.addr\[1\]
*1655 matmult_inst\.alu_inst\.a0_reg\[0\]
*1656 matmult_inst\.alu_inst\.a0_reg\[1\]
*1657 matmult_inst\.alu_inst\.a0_reg\[2\]
*1658 matmult_inst\.alu_inst\.a0_reg\[3\]
*1659 matmult_inst\.alu_inst\.a0_reg\[4\]
*1660 matmult_inst\.alu_inst\.a0_reg\[5\]
*1661 matmult_inst\.alu_inst\.a0_reg\[6\]
*1662 matmult_inst\.alu_inst\.a0_reg\[7\]
*1663 matmult_inst\.alu_inst\.a1_reg\[0\]
*1664 matmult_inst\.alu_inst\.a1_reg\[1\]
*1665 matmult_inst\.alu_inst\.a1_reg\[2\]
*1666 matmult_inst\.alu_inst\.a1_reg\[3\]
*1667 matmult_inst\.alu_inst\.a1_reg\[4\]
*1668 matmult_inst\.alu_inst\.a1_reg\[5\]
*1669 matmult_inst\.alu_inst\.a1_reg\[6\]
*1670 matmult_inst\.alu_inst\.a1_reg\[7\]
*1671 matmult_inst\.alu_inst\.adder_inst\.fa\.a
*1672 matmult_inst\.alu_inst\.adder_inst\.fa\.b
*1673 matmult_inst\.alu_inst\.adder_inst\.r0\.fa0\.a
*1674 matmult_inst\.alu_inst\.adder_inst\.r0\.fa0\.b
*1675 matmult_inst\.alu_inst\.adder_inst\.r0\.fa1\.a
*1676 matmult_inst\.alu_inst\.adder_inst\.r0\.fa1\.b
*1677 matmult_inst\.alu_inst\.adder_inst\.r0\.fa2\.a
*1678 matmult_inst\.alu_inst\.adder_inst\.r0\.fa2\.b
*1679 matmult_inst\.alu_inst\.adder_inst\.r0\.fa3\.a
*1680 matmult_inst\.alu_inst\.adder_inst\.r0\.fa3\.b
*1681 matmult_inst\.alu_inst\.adder_inst\.r1\.fa0\.a
*1682 matmult_inst\.alu_inst\.adder_inst\.r1\.fa0\.b
*1683 matmult_inst\.alu_inst\.adder_inst\.r1\.fa1\.a
*1684 matmult_inst\.alu_inst\.adder_inst\.r1\.fa1\.b
*1685 matmult_inst\.alu_inst\.adder_inst\.r1\.fa2\.a
*1686 matmult_inst\.alu_inst\.adder_inst\.r1\.fa2\.b
*1687 matmult_inst\.alu_inst\.adder_inst\.r1\.fa3\.a
*1688 matmult_inst\.alu_inst\.adder_inst\.r1\.fa3\.b
*1689 matmult_inst\.alu_inst\.adder_inst\.r2\.fa0\.a
*1690 matmult_inst\.alu_inst\.adder_inst\.r2\.fa0\.b
*1691 matmult_inst\.alu_inst\.adder_inst\.r2\.fa1\.a
*1692 matmult_inst\.alu_inst\.adder_inst\.r2\.fa1\.b
*1693 matmult_inst\.alu_inst\.adder_inst\.r2\.fa2\.a
*1694 matmult_inst\.alu_inst\.adder_inst\.r2\.fa2\.b
*1695 matmult_inst\.alu_inst\.adder_inst\.r2\.fa3\.a
*1696 matmult_inst\.alu_inst\.adder_inst\.r2\.fa3\.b
*1697 matmult_inst\.alu_inst\.adder_inst\.r3\.fa0\.a
*1698 matmult_inst\.alu_inst\.adder_inst\.r3\.fa0\.b
*1699 matmult_inst\.alu_inst\.adder_inst\.r3\.fa1\.a
*1700 matmult_inst\.alu_inst\.adder_inst\.r3\.fa1\.b
*1701 matmult_inst\.alu_inst\.adder_inst\.r3\.fa2\.a
*1702 matmult_inst\.alu_inst\.adder_inst\.r3\.fa2\.b
*1703 matmult_inst\.alu_inst\.adder_inst\.r3\.fa3\.a
*1704 matmult_inst\.alu_inst\.adder_inst\.r3\.fa3\.b
*1705 matmult_inst\.alu_inst\.b0_reg\[0\]
*1706 matmult_inst\.alu_inst\.b0_reg\[1\]
*1707 matmult_inst\.alu_inst\.b0_reg\[2\]
*1708 matmult_inst\.alu_inst\.b0_reg\[3\]
*1709 matmult_inst\.alu_inst\.b0_reg\[4\]
*1710 matmult_inst\.alu_inst\.b0_reg\[5\]
*1711 matmult_inst\.alu_inst\.b0_reg\[6\]
*1712 matmult_inst\.alu_inst\.b0_reg\[7\]
*1713 matmult_inst\.alu_inst\.b1_reg\[0\]
*1714 matmult_inst\.alu_inst\.b1_reg\[1\]
*1715 matmult_inst\.alu_inst\.b1_reg\[2\]
*1716 matmult_inst\.alu_inst\.b1_reg\[3\]
*1717 matmult_inst\.alu_inst\.b1_reg\[4\]
*1718 matmult_inst\.alu_inst\.b1_reg\[5\]
*1719 matmult_inst\.alu_inst\.b1_reg\[6\]
*1720 matmult_inst\.alu_inst\.b1_reg\[7\]
*1721 matmult_inst\.alu_inst\.col0\[0\]
*1722 matmult_inst\.alu_inst\.col0\[1\]
*1723 matmult_inst\.alu_inst\.col0\[2\]
*1724 matmult_inst\.alu_inst\.col0\[3\]
*1725 matmult_inst\.alu_inst\.col0\[4\]
*1726 matmult_inst\.alu_inst\.col0\[5\]
*1727 matmult_inst\.alu_inst\.col0\[6\]
*1728 matmult_inst\.alu_inst\.col0\[7\]
*1729 matmult_inst\.alu_inst\.col1\[0\]
*1730 matmult_inst\.alu_inst\.col1\[1\]
*1731 matmult_inst\.alu_inst\.col1\[2\]
*1732 matmult_inst\.alu_inst\.col1\[3\]
*1733 matmult_inst\.alu_inst\.col1\[4\]
*1734 matmult_inst\.alu_inst\.col1\[5\]
*1735 matmult_inst\.alu_inst\.col1\[6\]
*1736 matmult_inst\.alu_inst\.col1\[7\]
*1737 matmult_inst\.alu_inst\.complete
*1738 matmult_inst\.alu_inst\.out\[0\]
*1739 matmult_inst\.alu_inst\.out\[10\]
*1740 matmult_inst\.alu_inst\.out\[11\]
*1741 matmult_inst\.alu_inst\.out\[12\]
*1742 matmult_inst\.alu_inst\.out\[13\]
*1743 matmult_inst\.alu_inst\.out\[14\]
*1744 matmult_inst\.alu_inst\.out\[15\]
*1745 matmult_inst\.alu_inst\.out\[16\]
*1746 matmult_inst\.alu_inst\.out\[17\]
*1747 matmult_inst\.alu_inst\.out\[1\]
*1748 matmult_inst\.alu_inst\.out\[2\]
*1749 matmult_inst\.alu_inst\.out\[3\]
*1750 matmult_inst\.alu_inst\.out\[4\]
*1751 matmult_inst\.alu_inst\.out\[5\]
*1752 matmult_inst\.alu_inst\.out\[6\]
*1753 matmult_inst\.alu_inst\.out\[7\]
*1754 matmult_inst\.alu_inst\.out\[8\]
*1755 matmult_inst\.alu_inst\.out\[9\]
*1756 matmult_inst\.alu_inst\.row0\[0\]
*1757 matmult_inst\.alu_inst\.row0\[1\]
*1758 matmult_inst\.alu_inst\.row0\[2\]
*1759 matmult_inst\.alu_inst\.row0\[3\]
*1760 matmult_inst\.alu_inst\.row0\[4\]
*1761 matmult_inst\.alu_inst\.row0\[5\]
*1762 matmult_inst\.alu_inst\.row0\[6\]
*1763 matmult_inst\.alu_inst\.row0\[7\]
*1764 matmult_inst\.alu_inst\.row1\[0\]
*1765 matmult_inst\.alu_inst\.row1\[1\]
*1766 matmult_inst\.alu_inst\.row1\[2\]
*1767 matmult_inst\.alu_inst\.row1\[3\]
*1768 matmult_inst\.alu_inst\.row1\[4\]
*1769 matmult_inst\.alu_inst\.row1\[5\]
*1770 matmult_inst\.alu_inst\.row1\[6\]
*1771 matmult_inst\.alu_inst\.row1\[7\]
*1772 matmult_inst\.alu_inst\.state\[0\]
*1773 matmult_inst\.alu_inst\.state\[1\]
*1774 matmult_inst\.cs
*1775 matmult_inst\.fsm_inst\.alu_result\[0\]
*1776 matmult_inst\.fsm_inst\.alu_result\[10\]
*1777 matmult_inst\.fsm_inst\.alu_result\[11\]
*1778 matmult_inst\.fsm_inst\.alu_result\[12\]
*1779 matmult_inst\.fsm_inst\.alu_result\[13\]
*1780 matmult_inst\.fsm_inst\.alu_result\[14\]
*1781 matmult_inst\.fsm_inst\.alu_result\[15\]
*1782 matmult_inst\.fsm_inst\.alu_result\[16\]
*1783 matmult_inst\.fsm_inst\.alu_result\[17\]
*1784 matmult_inst\.fsm_inst\.alu_result\[1\]
*1785 matmult_inst\.fsm_inst\.alu_result\[2\]
*1786 matmult_inst\.fsm_inst\.alu_result\[3\]
*1787 matmult_inst\.fsm_inst\.alu_result\[4\]
*1788 matmult_inst\.fsm_inst\.alu_result\[5\]
*1789 matmult_inst\.fsm_inst\.alu_result\[6\]
*1790 matmult_inst\.fsm_inst\.alu_result\[7\]
*1791 matmult_inst\.fsm_inst\.alu_result\[8\]
*1792 matmult_inst\.fsm_inst\.alu_result\[9\]
*1793 matmult_inst\.fsm_inst\.count\[0\]
*1794 matmult_inst\.fsm_inst\.count\[1\]
*1795 matmult_inst\.fsm_inst\.count\[2\]
*1796 matmult_inst\.fsm_inst\.count\[3\]
*1797 matmult_inst\.fsm_inst\.load
*1798 matmult_inst\.fsm_inst\.load_delay
*1799 matmult_inst\.fsm_inst\.rx_data\[0\]
*1800 matmult_inst\.fsm_inst\.rx_data\[1\]
*1801 matmult_inst\.fsm_inst\.rx_data\[2\]
*1802 matmult_inst\.fsm_inst\.rx_data\[3\]
*1803 matmult_inst\.fsm_inst\.rx_data\[4\]
*1804 matmult_inst\.fsm_inst\.rx_data\[5\]
*1805 matmult_inst\.fsm_inst\.rx_data\[6\]
*1806 matmult_inst\.fsm_inst\.rx_data\[7\]
*1807 matmult_inst\.fsm_inst\.rx_ready_edge
*1808 matmult_inst\.fsm_inst\.rx_ready_edge_delay
*1809 matmult_inst\.fsm_inst\.rx_valid
*1810 matmult_inst\.fsm_inst\.rx_valid_delay
*1811 matmult_inst\.fsm_inst\.sel\[0\]
*1812 matmult_inst\.fsm_inst\.sel\[1\]
*1813 matmult_inst\.fsm_inst\.sel\[2\]
*1814 matmult_inst\.fsm_inst\.state\[0\]
*1815 matmult_inst\.fsm_inst\.state\[1\]
*1816 matmult_inst\.fsm_inst\.state\[2\]
*1817 matmult_inst\.fsm_inst\.state\[3\]
*1818 matmult_inst\.fsm_inst\.state\[4\]
*1819 matmult_inst\.fsm_inst\.tx_ready
*1820 matmult_inst\.fsm_inst\.tx_ready_delay
*1821 matmult_inst\.fsm_inst\.tx_start_send
*1822 matmult_inst\.mem_inst\.matrixA0\[0\]
*1823 matmult_inst\.mem_inst\.matrixA0\[10\]
*1824 matmult_inst\.mem_inst\.matrixA0\[11\]
*1825 matmult_inst\.mem_inst\.matrixA0\[12\]
*1826 matmult_inst\.mem_inst\.matrixA0\[13\]
*1827 matmult_inst\.mem_inst\.matrixA0\[14\]
*1828 matmult_inst\.mem_inst\.matrixA0\[15\]
*1829 matmult_inst\.mem_inst\.matrixA0\[16\]
*1830 matmult_inst\.mem_inst\.matrixA0\[17\]
*1831 matmult_inst\.mem_inst\.matrixA0\[1\]
*1832 matmult_inst\.mem_inst\.matrixA0\[2\]
*1833 matmult_inst\.mem_inst\.matrixA0\[3\]
*1834 matmult_inst\.mem_inst\.matrixA0\[4\]
*1835 matmult_inst\.mem_inst\.matrixA0\[5\]
*1836 matmult_inst\.mem_inst\.matrixA0\[6\]
*1837 matmult_inst\.mem_inst\.matrixA0\[7\]
*1838 matmult_inst\.mem_inst\.matrixA0\[8\]
*1839 matmult_inst\.mem_inst\.matrixA0\[9\]
*1840 matmult_inst\.mem_inst\.matrixA1\[0\]
*1841 matmult_inst\.mem_inst\.matrixA1\[10\]
*1842 matmult_inst\.mem_inst\.matrixA1\[11\]
*1843 matmult_inst\.mem_inst\.matrixA1\[12\]
*1844 matmult_inst\.mem_inst\.matrixA1\[13\]
*1845 matmult_inst\.mem_inst\.matrixA1\[14\]
*1846 matmult_inst\.mem_inst\.matrixA1\[15\]
*1847 matmult_inst\.mem_inst\.matrixA1\[16\]
*1848 matmult_inst\.mem_inst\.matrixA1\[17\]
*1849 matmult_inst\.mem_inst\.matrixA1\[1\]
*1850 matmult_inst\.mem_inst\.matrixA1\[2\]
*1851 matmult_inst\.mem_inst\.matrixA1\[3\]
*1852 matmult_inst\.mem_inst\.matrixA1\[4\]