*SPEF "ieee 1481-1999"
*DESIGN "pwm_wrapper"
*DATE "11:42:30 Wednesday October 09, 2024"
*VENDOR "The OpenROAD Project"
*PROGRAM "OpenROAD"
*VERSION "b16bda7e82721d10566ff7e2b68f1ff0be9f9e38"
*DESIGN_FLOW "NAME_SCOPE LOCAL" "PIN_CAP NONE"
*DIVIDER /
*DELIMITER :
*BUS_DELIMITER []
*T_UNIT 1 NS
*C_UNIT 1 PF
*R_UNIT 1 OHM
*L_UNIT 1 HENRY

*NAME_MAP
*1 CLK
*4 addr[0]
*5 addr[10]
*6 addr[11]
*7 addr[12]
*8 addr[13]
*9 addr[14]
*10 addr[15]
*11 addr[16]
*12 addr[17]
*13 addr[18]
*14 addr[19]
*15 addr[1]
*16 addr[20]
*17 addr[21]
*18 addr[22]
*19 addr[23]
*20 addr[24]
*21 addr[25]
*22 addr[26]
*23 addr[27]
*24 addr[28]
*25 addr[29]
*26 addr[2]
*27 addr[30]
*28 addr[31]
*29 addr[3]
*30 addr[4]
*31 addr[5]
*32 addr[6]
*33 addr[7]
*34 addr[8]
*35 addr[9]
*36 error
*37 nRST
*38 pwm_out[0]
*39 pwm_out[1]
*40 rdata[0]
*41 rdata[10]
*42 rdata[11]
*43 rdata[12]
*44 rdata[13]
*45 rdata[14]
*46 rdata[15]
*47 rdata[16]
*48 rdata[17]
*49 rdata[18]
*50 rdata[19]
*51 rdata[1]
*52 rdata[20]
*53 rdata[21]
*54 rdata[22]
*55 rdata[23]
*56 rdata[24]
*57 rdata[25]
*58 rdata[26]
*59 rdata[27]
*60 rdata[28]
*61 rdata[29]
*62 rdata[2]
*63 rdata[30]
*64 rdata[31]
*65 rdata[3]
*66 rdata[4]
*67 rdata[5]
*68 rdata[6]
*69 rdata[7]
*70 rdata[8]
*71 rdata[9]
*72 ren
*73 request_stall
*74 strobe[0]
*75 strobe[1]
*76 strobe[2]
*77 strobe[3]
*78 wdata[0]
*79 wdata[10]
*80 wdata[11]
*81 wdata[12]
*82 wdata[13]
*83 wdata[14]
*84 wdata[15]
*85 wdata[16]
*86 wdata[17]
*87 wdata[18]
*88 wdata[19]
*89 wdata[1]
*90 wdata[20]
*91 wdata[21]
*92 wdata[22]
*93 wdata[23]
*94 wdata[24]
*95 wdata[25]
*96 wdata[26]
*97 wdata[27]
*98 wdata[28]
*99 wdata[29]
*100 wdata[2]
*101 wdata[30]
*102 wdata[31]
*103 wdata[3]
*104 wdata[4]
*105 wdata[5]
*106 wdata[6]
*107 wdata[7]
*108 wdata[8]
*109 wdata[9]
*110 wen
*111 _0000_
*112 _0001_
*113 _0002_
*114 _0003_
*115 _0004_
*116 _0005_
*117 _0006_
*118 _0007_
*119 _0008_
*120 _0009_
*121 _0010_
*122 _0011_
*123 _0012_
*124 _0013_
*125 _0014_
*126 _0015_
*127 _0016_
*128 _0017_
*129 _0018_
*130 _0019_
*131 _0020_
*132 _0021_
*133 _0022_
*134 _0023_
*135 _0024_
*136 _0025_
*137 _0026_
*138 _0027_
*139 _0028_
*140 _0029_
*141 _0030_
*142 _0031_
*143 _0032_
*144 _0033_
*145 _0034_
*146 _0035_
*147 _0036_
*148 _0037_
*149 _0038_
*150 _0039_
*151 _0040_
*152 _0041_
*153 _0042_
*154 _0043_
*155 _0044_
*156 _0045_
*157 _0046_
*158 _0047_
*159 _0048_
*160 _0049_
*161 _0050_
*162 _0051_
*163 _0052_
*164 _0053_
*165 _0054_
*166 _0055_
*167 _0056_
*168 _0057_
*169 _0058_
*170 _0059_
*171 _0060_
*172 _0061_
*173 _0062_
*174 _0063_
*175 _0064_
*176 _0065_
*177 _0066_
*178 _0067_
*179 _0068_
*180 _0069_
*181 _0070_
*182 _0071_
*183 _0072_
*184 _0073_
*185 _0074_
*186 _0075_
*187 _0076_
*188 _0077_
*189 _0078_
*190 _0079_
*191 _0080_
*192 _0081_
*193 _0082_
*194 _0083_
*195 _0084_
*196 _0085_
*197 _0086_
*198 _0087_
*199 _0088_
*200 _0089_
*201 _0090_
*202 _0091_
*203 _0092_
*204 _0093_
*205 _0094_
*206 _0095_
*207 _0096_
*208 _0097_
*209 _0098_
*210 _0099_
*211 _0100_
*212 _0101_
*213 _0102_
*214 _0103_
*215 _0104_
*216 _0105_
*217 _0106_
*218 _0107_
*219 _0108_
*220 _0109_
*221 _0110_
*222 _0111_
*223 _0112_
*224 _0113_
*225 _0114_
*226 _0115_
*227 _0116_
*228 _0117_
*229 _0118_
*230 _0119_
*231 _0120_
*232 _0121_
*233 _0122_
*234 _0123_
*235 _0124_
*236 _0125_
*237 _0126_
*238 _0127_
*239 _0128_
*240 _0129_
*241 _0130_
*242 _0131_
*243 _0132_
*244 _0133_
*245 _0134_
*246 _0135_
*247 _0136_
*248 _0137_
*249 _0138_
*250 _0139_
*251 _0140_
*252 _0141_
*253 _0142_
*254 _0143_
*255 _0144_
*256 _0145_
*257 _0146_
*258 _0147_
*259 _0148_
*260 _0149_
*261 _0150_
*262 _0151_
*263 _0152_
*264 _0153_
*265 _0154_
*266 _0155_
*267 _0156_
*268 _0157_
*269 _0158_
*270 _0159_
*271 _0160_
*272 _0161_
*273 _0162_
*274 _0163_
*275 _0164_
*276 _0165_
*277 _0166_
*278 _0167_
*279 _0168_
*280 _0169_
*281 _0170_
*282 _0171_
*283 _0172_
*284 _0173_
*285 _0174_
*286 _0175_
*287 _0176_
*288 _0177_
*289 _0178_
*290 _0179_
*291 _0180_
*292 _0181_
*293 _0182_
*294 _0183_
*295 _0184_
*296 _0185_
*297 _0186_
*298 _0187_
*299 _0188_
*300 _0189_
*301 _0190_
*302 _0191_
*303 _0192_
*304 _0193_
*305 _0194_
*306 _0195_
*307 _0196_
*308 _0197_
*309 _0198_
*310 _0199_
*311 _0200_
*312 _0201_
*313 _0202_
*314 _0203_
*315 _0204_
*316 _0205_
*317 _0206_
*318 _0207_
*319 _0208_
*320 _0209_
*321 _0210_
*322 _0211_
*323 _0212_
*324 _0213_
*325 _0214_
*326 _0215_
*327 _0216_
*328 _0217_
*329 _0218_
*330 _0219_
*331 _0220_
*332 _0221_
*333 _0222_
*334 _0223_
*335 _0224_
*336 _0225_
*337 _0226_
*338 _0227_
*339 _0228_
*340 _0229_
*341 _0230_
*342 _0231_
*343 _0232_
*344 _0233_
*345 _0234_
*346 _0235_
*347 _0236_
*348 _0237_
*349 _0238_
*350 _0239_
*351 _0240_
*352 _0241_
*353 _0242_
*354 _0243_
*355 _0244_
*356 _0245_
*357 _0246_
*358 _0247_
*359 _0248_
*360 _0249_
*361 _0250_
*362 _0251_
*363 _0252_
*364 _0253_
*365 _0254_
*366 _0255_
*367 _0256_
*368 _0257_
*369 _0258_
*370 _0259_
*371 _0260_
*372 _0261_
*373 _0262_
*374 _0263_
*375 _0264_
*376 _0265_
*377 _0266_
*378 _0267_
*379 _0268_
*380 _0269_
*381 _0270_
*382 _0271_
*383 _0272_
*384 _0273_
*385 _0274_
*386 _0275_
*387 _0276_
*388 _0277_
*389 _0278_
*390 _0279_
*391 _0280_
*392 _0281_
*393 _0282_
*394 _0283_
*395 _0284_
*396 _0285_
*397 _0286_
*398 _0287_
*399 _0288_
*400 _0289_
*401 _0290_
*402 _0291_
*403 _0292_
*404 _0293_
*405 _0294_
*406 _0295_
*407 _0296_
*408 _0297_
*409 _0298_
*410 _0299_
*411 _0300_
*412 _0301_
*413 _0302_
*414 _0303_
*415 _0304_
*416 _0305_
*417 _0306_
*418 _0307_
*419 _0308_
*420 _0309_
*421 _0310_
*422 _0311_
*423 _0312_
*424 _0313_
*425 _0314_
*426 _0315_
*427 _0316_
*428 _0317_
*429 _0318_
*430 _0319_
*431 _0320_
*432 _0321_
*433 _0322_
*434 _0323_
*435 _0324_
*436 _0325_
*437 _0326_
*438 _0327_
*439 _0328_
*440 _0329_
*441 _0330_
*442 _0331_
*443 _0332_
*444 _0333_
*445 _0334_
*446 _0335_
*447 _0336_
*448 _0337_
*449 _0338_
*450 _0339_
*451 _0340_
*452 _0341_
*453 _0342_
*454 _0343_
*455 _0344_
*456 _0345_
*457 _0346_
*458 _0347_
*459 _0348_
*460 _0349_
*461 _0350_
*462 _0351_
*463 _0352_
*464 _0353_
*465 _0354_
*466 _0355_
*467 _0356_
*468 _0357_
*469 _0358_
*470 _0359_
*471 _0360_
*472 _0361_
*473 _0362_
*474 _0363_
*475 _0364_
*476 _0365_
*477 _0366_
*478 _0367_
*479 _0368_
*480 _0369_
*481 _0370_
*482 _0371_
*483 _0372_
*484 _0373_
*485 _0374_
*486 _0375_
*487 _0376_
*488 _0377_
*489 _0378_
*490 _0379_
*491 _0380_
*492 _0381_
*493 _0382_
*494 _0383_
*495 _0384_
*496 _0385_
*497 _0386_
*498 _0387_
*499 _0388_
*500 _0389_
*501 _0390_
*502 _0391_
*503 _0392_
*504 _0393_
*505 _0394_
*506 _0395_
*507 _0396_
*508 _0397_
*509 _0398_
*510 _0399_
*511 _0400_
*512 _0401_
*513 _0402_
*514 _0403_
*515 _0404_
*516 _0405_
*517 _0406_
*518 _0407_
*519 _0408_
*520 _0409_
*521 _0410_
*522 _0411_
*523 _0412_
*524 _0413_
*525 _0414_
*526 _0415_
*527 _0416_
*528 _0417_
*529 _0418_
*530 _0419_
*531 _0420_
*532 _0421_
*533 _0422_
*534 _0423_
*535 _0424_
*536 _0425_
*537 _0426_
*538 _0427_
*539 _0428_
*540 _0429_
*541 _0430_
*542 _0431_
*543 _0432_
*544 _0433_
*545 _0434_
*546 _0435_
*547 _0436_
*548 _0437_
*549 _0438_
*550 _0439_
*551 _0440_
*552 _0441_
*553 _0442_
*554 _0443_
*555 _0444_
*556 _0445_
*557 _0446_
*558 _0447_
*559 _0448_
*560 _0449_
*561 _0450_
*562 _0451_
*563 _0452_
*564 _0453_
*565 _0454_
*566 _0455_
*567 _0456_
*568 _0457_
*569 _0458_
*570 _0459_
*571 _0460_
*572 _0461_
*573 _0462_
*574 _0463_
*575 _0464_
*576 _0465_
*577 _0466_
*578 _0467_
*579 _0468_
*580 _0469_
*581 _0470_
*582 _0471_
*583 _0472_
*584 _0473_
*585 _0474_
*586 _0475_
*587 _0476_
*588 _0477_
*589 _0478_
*590 _0479_
*591 _0480_
*592 _0481_
*593 _0482_
*594 _0483_
*595 _0484_
*596 _0485_
*597 _0486_
*598 _0487_
*599 _0488_
*600 _0489_
*601 _0490_
*602 _0491_
*603 _0492_
*604 _0493_
*605 _0494_
*606 _0495_
*607 _0496_
*608 _0497_
*609 _0498_
*610 _0499_
*611 _0500_
*612 _0501_
*613 _0502_
*614 _0503_
*615 _0504_
*616 _0505_
*617 _0506_
*618 _0507_
*619 _0508_
*620 _0509_
*621 _0510_
*622 _0511_
*623 _0512_
*624 _0513_
*625 _0514_
*626 _0515_
*627 _0516_
*628 _0517_
*629 _0518_
*630 _0519_
*631 _0520_
*632 _0521_
*633 _0522_
*634 _0523_
*635 _0524_
*636 _0525_
*637 _0526_
*638 _0527_
*639 _0528_
*640 _0529_
*641 _0530_
*642 _0531_
*643 _0532_
*644 _0533_
*645 _0534_
*646 _0535_
*647 _0536_
*648 _0537_
*649 _0538_
*650 _0539_
*651 _0540_
*652 _0541_
*653 _0542_
*654 _0543_
*655 _0544_
*656 _0545_
*657 _0546_
*658 _0547_
*659 _0548_
*660 _0549_
*661 _0550_
*662 _0551_
*663 _0552_
*664 _0553_
*665 _0554_
*666 _0555_
*667 _0556_
*668 _0557_
*669 _0558_
*670 _0559_
*671 _0560_
*672 _0561_
*673 _0562_
*674 _0563_
*675 _0564_
*676 _0565_
*677 _0566_
*678 _0567_
*679 _0568_
*680 _0569_
*681 _0570_
*682 _0571_
*683 _0572_
*684 _0573_
*685 _0574_
*686 _0575_
*687 _0576_
*688 _0577_
*689 _0578_
*690 _0579_
*691 _0580_
*692 _0581_
*693 _0582_
*694 _0583_
*695 _0584_
*696 _0585_
*697 _0586_
*698 _0587_
*699 _0588_
*700 _0589_
*701 _0590_
*702 _0591_
*703 _0592_
*704 _0593_
*705 _0594_
*706 _0595_
*707 _0596_
*708 _0597_
*709 _0598_
*710 _0599_
*711 _0600_
*712 _0601_
*713 _0602_
*714 _0603_
*715 _0604_
*716 _0605_
*717 _0606_
*718 _0607_
*719 _0608_
*720 _0609_
*721 _0610_
*722 _0611_
*723 _0612_
*724 _0613_
*725 _0614_
*726 _0615_
*727 _0616_
*728 _0617_
*729 _0618_
*730 _0619_
*731 _0620_
*732 _0621_
*733 _0622_
*734 _0623_
*735 _0624_
*736 _0625_
*737 _0626_
*738 _0627_
*739 _0628_
*740 _0629_
*741 _0630_
*742 _0631_
*743 _0632_
*744 _0633_
*745 _0634_
*746 _0635_
*747 _0636_
*748 _0637_
*749 _0638_
*750 _0639_
*751 _0640_
*752 _0641_
*753 _0642_
*754 _0643_
*755 _0644_
*756 _0645_
*757 _0646_
*758 _0647_
*759 _0648_
*760 _0649_
*761 _0650_
*762 _0651_
*763 _0652_
*764 _0653_
*765 _0654_
*766 _0655_
*767 _0656_
*768 _0657_
*769 _0658_
*770 _0659_
*771 _0660_
*772 _0661_
*773 _0662_
*774 _0663_
*775 _0664_
*776 _0665_
*777 _0666_
*778 _0667_
*779 _0668_
*780 _0669_
*781 _0670_
*782 _0671_
*783 _0672_
*784 _0673_
*785 _0674_
*786 _0675_
*787 _0676_
*788 _0677_
*789 _0678_
*790 _0679_
*791 _0680_
*792 _0681_
*793 _0682_
*794 _0683_
*795 _0684_
*796 _0685_
*797 _0686_
*798 _0687_
*799 _0688_
*800 _0689_
*801 _0690_
*802 _0691_
*803 _0692_
*804 _0693_
*805 _0694_
*806 _0695_
*807 _0696_
*808 _0697_
*809 _0698_
*810 _0699_
*811 _0700_
*812 _0701_
*813 _0702_
*814 _0703_
*815 _0704_
*816 _0705_
*817 _0706_
*818 _0707_
*819 _0708_
*820 _0709_
*821 _0710_
*822 _0711_
*823 _0712_
*824 _0713_
*825 _0714_
*826 _0715_
*827 _0716_
*828 _0717_
*829 _0718_
*830 _0719_
*831 _0720_
*832 _0721_
*833 _0722_
*834 _0723_
*835 _0724_
*836 _0725_
*837 _0726_
*838 _0727_
*839 _0728_
*840 _0729_
*841 _0730_
*842 _0731_
*843 _0732_
*844 _0733_
*845 _0734_
*846 _0735_
*847 _0736_
*848 _0737_
*849 _0738_
*850 _0739_
*851 _0740_
*852 _0741_
*853 _0742_
*854 _0743_
*855 _0744_
*856 _0745_
*857 _0746_
*858 _0747_
*859 _0748_
*860 _0749_
*861 _0750_
*862 _0751_
*863 _0752_
*864 _0753_
*865 _0754_
*866 _0755_
*867 _0756_
*868 _0757_
*869 _0758_
*870 _0759_
*871 _0760_
*872 _0761_
*873 _0762_
*874 _0763_
*875 _0764_
*876 _0765_
*877 _0766_
*878 _0767_
*879 _0768_
*880 _0769_
*881 _0770_
*882 _0771_
*883 _0772_
*884 _0773_
*885 _0774_
*886 _0775_
*887 _0776_
*888 _0777_
*889 _0778_
*890 _0779_
*891 _0780_
*892 _0781_
*893 _0782_
*894 _0783_
*895 _0784_
*896 _0785_
*897 _0786_
*898 _0787_
*899 _0788_
*900 _0789_
*901 _0790_
*902 _0791_
*903 _0792_
*904 _0793_
*905 _0794_
*906 _0795_
*907 _0796_
*908 _0797_
*909 _0798_
*910 _0799_
*911 _0800_
*912 _0801_
*913 _0802_
*914 _0803_
*915 _0804_
*916 _0805_
*917 _0806_
*918 _0807_
*919 _0808_
*920 _0809_
*921 _0810_
*922 _0811_
*923 _0812_
*924 _0813_
*925 _0814_
*926 _0815_
*927 _0816_
*928 _0817_
*929 _0818_
*930 _0819_
*931 _0820_
*932 _0821_
*933 _0822_
*934 _0823_
*935 _0824_
*936 _0825_
*937 _0826_
*938 _0827_
*939 _0828_
*940 _0829_
*941 _0830_
*942 _0831_
*943 _0832_
*944 _0833_
*945 _0834_
*946 _0835_
*947 _0836_
*948 _0837_
*949 _0838_
*950 _0839_
*951 _0840_
*952 _0841_
*953 _0842_
*954 _0843_
*955 _0844_
*956 _0845_
*957 _0846_
*958 _0847_
*959 _0848_
*960 _0849_
*961 _0850_
*962 _0851_
*963 _0852_
*964 _0853_
*965 _0854_
*966 _0855_
*967 _0856_
*968 _0857_
*969 _0858_
*970 _0859_
*971 _0860_
*972 _0861_
*973 _0862_
*974 _0863_
*975 _0864_
*976 _0865_
*977 _0866_
*978 _0867_
*979 _0868_
*980 _0869_
*981 _0870_
*982 _0871_
*983 _0872_
*984 _0873_
*985 _0874_
*986 _0875_
*987 _0876_
*988 _0877_
*989 _0878_
*990 _0879_
*991 _0880_
*992 _0881_
*993 _0882_
*994 _0883_
*995 _0884_
*996 _0885_
*997 _0886_
*998 _0887_
*999 _0888_
*1000 _0889_
*1001 _0890_
*1002 _0891_
*1003 _0892_
*1004 _0893_
*1005 _0894_
*1006 _0895_
*1007 _0896_
*1008 _0897_
*1009 _0898_
*1010 _0899_
*1011 _0900_
*1012 _0901_
*1013 _0902_
*1014 _0903_
*1015 _0904_
*1016 _0905_
*1017 _0906_
*1018 _0907_
*1019 _0908_
*1020 _0909_
*1021 _0910_
*1022 _0911_
*1023 _0912_
*1024 _0913_
*1025 _0914_
*1026 _0915_
*1027 _0916_
*1028 _0917_
*1029 _0918_
*1030 _0919_
*1031 _0920_
*1032 _0921_
*1033 _0922_
*1034 _0923_
*1035 _0924_
*1036 _0925_
*1037 _0926_
*1038 _0927_
*1039 _0928_
*1040 _0929_
*1041 _0930_
*1042 _0931_
*1043 _0932_
*1044 _0933_
*1045 _0934_
*1046 _0935_
*1047 _0936_
*1048 _0937_
*1049 _0938_
*1050 _0939_
*1051 _0940_
*1052 _0941_
*1053 _0942_
*1054 _0943_
*1055 _0944_
*1056 _0945_
*1057 _0946_
*1058 _0947_
*1059 _0948_
*1060 _0949_
*1061 _0950_
*1062 _0951_
*1063 _0952_
*1064 _0953_
*1065 _0954_
*1066 _0955_
*1067 _0956_
*1068 _0957_
*1069 _0958_
*1070 _0959_
*1071 _0960_
*1072 _0961_
*1073 _0962_
*1074 _0963_
*1075 _0964_
*1076 _0965_
*1077 _0966_
*1078 _0967_
*1079 _0968_
*1080 _0969_
*1081 _0970_
*1082 _0971_
*1083 _0972_
*1084 _0973_
*1085 _0974_
*1086 _0975_
*1087 _0976_
*1088 _0977_
*1089 _0978_
*1090 _0979_
*1091 _0980_
*1092 _0981_
*1093 _0982_
*1094 _0983_
*1095 _0984_
*1096 _0985_
*1097 _0986_
*1098 _0987_
*1099 _0988_
*1100 _0989_
*1101 _0990_
*1102 _0991_
*1103 _0992_
*1104 _0993_
*1105 _0994_
*1106 _0995_
*1107 _0996_
*1108 _0997_
*1109 _0998_
*1110 _0999_
*1111 _1000_
*1112 _1001_
*1113 _1002_
*1114 _1003_
*1115 _1004_
*1116 _1005_
*1117 _1006_
*1118 _1007_
*1119 _1008_
*1120 _1009_
*1121 _1010_
*1122 _1011_
*1123 _1012_
*1124 _1013_
*1125 _1014_
*1126 _1015_
*1127 _1016_
*1128 _1017_
*1129 _1018_
*1130 _1019_
*1131 _1020_
*1132 _1021_
*1133 _1022_
*1134 _1023_
*1135 _1024_
*1136 _1025_
*1137 _1026_
*1138 _1027_
*1139 _1028_
*1140 _1029_
*1141 _1030_
*1142 _1031_
*1143 _1032_
*1144 _1033_
*1145 _1034_
*1146 _1035_
*1147 _1036_
*1148 _1037_
*1149 _1038_
*1150 _1039_
*1151 _1040_
*1152 _1041_
*1153 _1042_
*1154 _1043_
*1155 _1044_
*1156 _1045_
*1157 _1046_
*1158 _1047_
*1159 _1048_
*1160 _1049_
*1161 _1050_
*1162 _1051_
*1163 _1052_
*1164 _1053_
*1165 _1054_
*1166 _1055_
*1167 _1056_
*1168 _1057_
*1169 _1058_
*1170 _1059_
*1171 _1060_
*1172 _1061_
*1173 _1062_
*1174 _1063_
*1175 _1064_
*1176 _1065_
*1177 _1066_
*1178 _1067_
*1179 _1068_
*1180 _1069_
*1181 _1070_
*1182 _1071_
*1183 _1072_
*1184 _1073_
*1185 _1074_
*1186 _1075_
*1187 _1076_
*1188 _1077_
*1189 _1078_
*1190 _1079_
*1191 _1080_
*1192 _1081_
*1193 _1082_
*1194 _1083_
*1195 _1084_
*1196 _1085_
*1197 _1086_
*1198 _1087_
*1199 _1088_
*1200 _1089_
*1201 _1090_
*1202 _1091_
*1203 _1092_
*1204 _1093_
*1205 _1094_
*1206 _1095_
*1207 _1096_
*1208 _1097_
*1209 _1098_
*1210 _1099_
*1211 _1100_
*1212 _1101_
*1213 _1102_
*1214 _1103_
*1215 _1104_
*1216 _1105_
*1217 _1106_
*1218 _1107_
*1219 _1108_
*1220 _1109_
*1221 _1110_
*1222 _1111_
*1223 _1112_
*1224 _1113_
*1225 _1114_
*1226 _1115_
*1227 _1116_
*1228 _1117_
*1229 _1118_
*1230 _1119_
*1231 _1120_
*1232 _1121_
*1233 _1122_
*1234 _1123_
*1235 _1124_
*1236 _1125_
*1237 _1126_
*1238 _1127_
*1239 _1128_
*1240 _1129_
*1241 _1130_
*1242 _1131_
*1243 _1132_
*1244 _1133_
*1245 _1134_
*1246 _1135_
*1247 _1136_
*1248 _1137_
*1249 _1138_
*1250 _1139_
*1251 _1140_
*1252 _1141_
*1253 _1142_
*1254 _1143_
*1255 _1144_
*1256 _1145_
*1257 _1146_
*1258 _1147_
*1259 _1148_
*1260 _1149_
*1261 _1150_
*1262 _1151_
*1263 _1152_
*1264 _1153_
*1265 _1154_
*1266 _1155_
*1267 _1156_
*1268 _1157_
*1269 _1158_
*1270 _1159_
*1271 _1160_
*1272 _1161_
*1273 _1162_
*1274 _1163_
*1275 _1164_
*1276 _1165_
*1277 _1166_
*1278 _1167_
*1279 _1168_
*1280 _1169_
*1281 _1170_
*1282 _1171_
*1283 _1172_
*1284 _1173_
*1285 _1174_
*1286 _1175_
*1287 _1176_
*1288 _1177_
*1289 _1178_
*1290 _1179_
*1291 _1180_
*1292 _1181_
*1293 _1182_
*1294 _1183_
*1295 _1184_
*1296 _1185_
*1297 _1186_
*1298 _1187_
*1299 _1188_
*1300 _1189_
*1301 _1190_
*1302 _1191_
*1303 _1192_
*1304 _1193_
*1305 _1194_
*1306 _1195_
*1307 _1196_
*1308 _1197_
*1309 _1198_
*1310 _1199_
*1311 _1200_
*1312 _1201_
*1313 _1202_
*1314 _1203_
*1315 _1204_
*1316 _1205_
*1317 _1206_
*1318 _1207_
*1319 _1208_
*1320 _1209_
*1321 _1210_
*1322 _1211_
*1323 _1212_
*1324 _1213_
*1325 _1214_
*1326 _1215_
*1327 _1216_
*1328 _1217_
*1329 _1218_
*1330 _1219_
*1331 _1220_
*1332 _1221_
*1333 _1222_
*1334 _1223_
*1335 _1224_
*1336 _1225_
*1337 _1226_
*1338 _1227_
*1339 _1228_
*1340 _1229_
*1341 _1230_
*1342 _1231_
*1343 _1232_
*1344 _1233_
*1345 _1234_
*1346 _1235_
*1347 _1236_
*1348 _1237_
*1349 _1238_
*1350 _1239_
*1351 _1240_
*1352 _1241_
*1353 _1242_
*1354 _1243_
*1355 _1244_
*1356 _1245_
*1357 _1246_
*1358 _1247_
*1359 _1248_
*1360 _1249_
*1361 _1250_
*1362 _1251_
*1363 _1252_
*1364 _1253_
*1365 _1254_
*1366 _1255_
*1367 _1256_
*1368 _1257_
*1369 _1258_
*1370 _1259_
*1371 _1260_
*1372 _1261_
*1373 _1262_
*1374 _1263_
*1375 _1264_
*1376 _1265_
*1377 _1266_
*1378 _1267_
*1379 _1268_
*1380 _1269_
*1381 _1270_
*1382 _1271_
*1383 _1272_
*1384 _1273_
*1385 _1274_
*1386 _1275_
*1387 _1276_
*1388 _1277_
*1389 _1278_
*1390 _1279_
*1391 _1280_
*1392 _1281_
*1393 _1282_
*1394 _1283_
*1395 _1284_
*1396 _1285_
*1397 _1286_
*1398 _1287_
*1399 _1288_
*1400 _1289_
*1401 _1290_
*1402 _1291_
*1403 _1292_
*1404 _1293_
*1405 _1294_
*1406 _1295_
*1407 _1296_
*1408 _1297_
*1409 _1298_
*1410 _1299_
*1411 _1300_
*1412 _1301_
*1413 _1302_
*1414 _1303_
*1415 _1304_
*1416 _1305_
*1417 _1306_
*1418 _1307_
*1419 _1308_
*1420 _1309_
*1421 _1310_
*1422 _1311_
*1423 _1312_
*1424 _1313_
*1425 _1314_
*1426 _1315_
*1427 _1316_
*1428 _1317_
*1429 _1318_
*1430 _1319_
*1431 _1320_
*1432 _1321_
*1433 _1322_
*1434 _1323_
*1435 _1324_
*1436 _1325_
*1437 _1326_
*1438 _1327_
*1439 _1328_
*1440 _1329_
*1441 _1330_
*1442 _1331_
*1443 _1332_
*1444 _1333_
*1445 _1334_
*1446 _1335_
*1447 _1336_
*1448 _1337_
*1449 _1338_
*1450 _1339_
*1451 _1340_
*1452 _1341_
*1453 _1342_
*1454 _1343_
*1455 _1344_
*1456 _1345_
*1457 _1346_
*1458 _1347_
*1459 _1348_
*1460 _1349_
*1461 _1350_
*1462 _1351_
*1463 _1352_
*1464 _1353_
*1465 _1354_
*1466 _1355_
*1467 _1356_
*1468 _1357_
*1469 _1358_
*1470 _1359_
*1471 _1360_
*1472 _1361_
*1473 _1362_
*1474 _1363_
*1475 _1364_
*1476 _1365_
*1477 _1366_
*1478 _1367_
*1479 _1368_
*1480 _1369_
*1481 _1370_
*1482 _1371_
*1483 _1372_
*1484 _1373_
*1485 _1374_
*1486 _1375_
*1487 _1376_
*1488 _1377_
*1489 _1378_
*1490 _1379_
*1491 _1380_
*1492 _1381_
*1493 _1382_
*1494 _1383_
*1495 _1384_
*1496 _1385_
*1497 _1386_
*1498 _1387_
*1499 _1388_
*1500 _1389_
*1501 _1390_
*1502 _1391_
*1503 _1392_
*1504 _1393_
*1505 _1394_
*1506 _1395_
*1507 _1396_
*1508 _1397_
*1509 _1398_
*1510 _1399_
*1511 _1400_
*1512 _1401_
*1513 _1402_
*1514 _1403_
*1515 _1404_
*1516 _1405_
*1517 _1406_
*1518 _1407_
*1519 _1408_
*1520 _1409_
*1521 _1410_
*1522 _1411_
*1523 _1412_
*1524 _1413_
*1525 _1414_
*1526 _1415_
*1527 _1416_
*1528 _1417_
*1529 _1418_
*1530 _1419_
*1531 _1420_
*1532 _1421_
*1533 _1422_
*1534 _1423_
*1535 _1424_
*1536 _1425_
*1537 _1426_
*1538 _1427_
*1539 _1428_
*1540 _1429_
*1541 _1430_
*1542 _1431_
*1543 _1432_
*1544 _1433_
*1545 _1434_
*1546 _1435_
*1547 _1436_
*1548 _1437_
*1549 _1438_
*1550 _1439_
*1551 _1440_
*1552 _1441_
*1553 _1442_
*1554 _1443_
*1555 _1444_
*1556 _1445_
*1557 _1446_
*1558 _1447_
*1559 _1448_
*1560 _1449_
*1561 _1450_
*1562 _1451_
*1563 _1452_
*1564 _1453_
*1565 _1454_
*1566 _1455_
*1567 _1456_
*1568 _1457_
*1569 _1458_
*1570 _1459_
*1571 _1460_
*1572 _1461_
*1573 _1462_
*1574 _1463_
*1575 _1464_
*1576 _1465_
*1577 _1466_
*1578 _1467_
*1579 _1468_
*1580 _1469_
*1581 _1470_
*1582 _1471_
*1583 _1472_
*1584 _1473_
*1585 _1474_
*1586 _1475_
*1587 _1476_
*1588 _1477_
*1589 _1478_
*1590 _1479_
*1591 _1480_
*1592 _1481_
*1593 _1482_
*1594 _1483_
*1595 _1484_
*1596 _1485_
*1597 _1486_
*1598 _1487_
*1599 _1488_
*1600 _1489_
*1601 _1490_
*1602 _1491_
*1603 _1492_
*1604 _1493_
*1605 _1494_
*1606 _1495_
*1607 _1496_
*1608 _1497_
*1609 _1498_
*1610 _1499_
*1611 _1500_
*1612 _1501_
*1613 _1502_
*1614 _1503_
*1615 _1504_
*1616 _1505_
*1617 _1506_
*1618 _1507_
*1619 _1508_
*1620 _1509_
*1621 _1510_
*1622 _1511_
*1623 _1512_
*1624 _1513_
*1625 _1514_
*1626 _1515_
*1627 _1516_
*1628 _1517_
*1629 _1518_
*1630 _1519_
*1631 _1520_
*1632 _1521_
*1633 _1522_
*1634 _1523_
*1635 _1524_
*1636 _1525_
*1637 _1526_
*1638 _1527_
*1639 _1528_
*1640 _1529_
*1641 _1530_
*1642 _1531_
*1643 _1532_
*1644 _1533_
*1645 _1534_
*1646 _1535_
*1647 _1536_
*1648 _1537_
*1649 _1538_
*1650 _1539_
*1651 _1540_
*1652 _1541_
*1653 _1542_
*1654 _1543_
*1655 _1544_
*1656 _1545_
*1657 _1546_
*1658 _1547_
*1659 _1548_
*1660 _1549_
*1661 _1550_
*1662 _1551_
*1663 _1552_
*1664 _1553_
*1665 _1554_
*1666 _1555_
*1667 _1556_
*1668 _1557_
*1669 _1558_
*1670 _1559_
*1671 _1560_
*1672 _1561_
*1673 _1562_
*1674 _1563_
*1675 _1564_
*1676 _1565_
*1677 _1566_
*1678 _1567_
*1679 _1568_
*1680 _1569_
*1681 _1570_
*1682 _1571_
*1683 _1572_
*1684 _1573_
*1685 _1574_
*1686 _1575_
*1687 _1576_
*1688 _1577_
*1689 _1578_
*1690 _1579_
*1691 _1580_
*1692 _1581_
*1693 _1582_
*1694 _1583_
*1695 _1584_
*1696 _1585_
*1697 _1586_
*1698 _1587_
*1699 _1588_
*1700 _1589_
*1701 _1590_
*1702 _1591_
*1703 _1592_
*1704 _1593_
*1705 _1594_
*1706 _1595_
*1707 _1596_
*1708 _1597_
*1709 _1598_
*1710 _1599_
*1711 _1600_
*1712 _1601_
*1713 _1602_
*1714 _1603_
*1715 _1604_
*1716 _1605_
*1717 _1606_
*1718 _1607_
*1719 _1608_
*1720 _1609_
*1721 _1610_
*1722 _1611_
*1723 _1612_
*1724 _1613_
*1725 _1614_
*1726 _1615_
*1727 _1616_
*1728 _1617_
*1729 _1618_
*1730 _1619_
*1731 _1620_
*1732 _1621_
*1733 _1622_
*1734 _1623_
*1735 _1624_
*1736 _1625_
*1737 _1626_
*1738 _1627_
*1739 _1628_
*1740 _1629_
*1741 _1630_
*1742 _1631_
*1743 _1632_
*1744 _1633_
*1745 _1634_
*1746 _1635_
*1747 _1636_
*1748 _1637_
*1749 _1638_
*1750 _1639_
*1751 _1640_
*1752 _1641_
*1753 _1642_
*1754 _1643_
*1755 _1644_
*1756 _1645_
*1757 _1646_
*1758 _1647_
*1759 _1648_
*1760 _1649_
*1761 _1650_
*1762 _1651_
*1763 _1652_
*1764 _1653_
*1765 _1654_
*1766 _1655_
*1767 _1656_
*1768 _1657_
*1769 _1658_
*1770 _1659_
*1771 _1660_
*1772 _1661_
*1773 _1662_
*1774 _1663_
*1775 _1664_
*1776 _1665_
*1777 _1666_
*1778 _1667_
*1779 _1668_
*1780 _1669_
*1781 _1670_
*1782 _1671_
*1783 _1672_
*1784 _1673_
*1785 _1674_
*1786 _1675_
*1787 _1676_
*1788 _1677_
*1789 _1678_
*1790 _1679_
*1791 _1680_
*1792 _1681_
*1793 _1682_
*1794 _1683_
*1795 _1684_
*1796 _1685_
*1797 _1686_
*1798 _1687_
*1799 _1688_
*1800 _1689_
*1801 _1690_
*1802 _1691_
*1803 _1692_
*1804 _1693_
*1805 _1694_
*1806 _1695_
*1807 _1696_
*1808 _1697_
*1809 _1698_
*1810 _1699_
*1811 _1700_
*1812 _1701_
*1813 _1702_
*1814 _1703_
*1815 _1704_
*1816 _1705_
*1817 _1706_
*1818 _1707_
*1819 _1708_
*1820 _1709_
*1821 _1710_
*1822 _1711_
*1823 _1712_
*1824 _1713_
*1825 _1714_
*1826 _1715_
*1827 _1716_
*1828 _1717_
*1829 _1718_
*1830 _1719_
*1831 _1720_
*1832 _1721_
*1833 _1722_
*1834 _1723_
*1835 _1724_
*1836 _1725_
*1837 _1726_
*1838 _1727_
*1839 _1728_
*1840 _1729_
*1841 _1730_
*1842 _1731_
*1843 _1732_
*1844 _1733_
*1845 _1734_
*1846 _1735_
*1847 _1736_
*1848 _1737_
*1849 _1738_
*1850 _1739_
*1851 _1740_
*1852 _1741_
*1853 _1742_
*1854 _1743_
*1855 _1744_
*1856 _1745_
*1857 _1746_
*1858 _1747_
*1859 _1748_
*1860 _1749_
*1861 _1750_
*1862 _1751_
*1863 _1752_
*1864 _1753_
*1865 _1754_
*1866 _1755_
*1867 _1756_
*1868 _1757_
*1869 _1758_
*1870 _1759_
*1871 _1760_
*1872 _1761_
*1873 _1762_
*1874 _1763_
*1875 _1764_
*1876 _1765_
*1877 _1766_
*1878 _1767_
*1879 _1768_
*1880 _1769_
*1881 _1770_
*1882 _1771_
*1883 _1772_
*1884 _1773_
*1885 _1774_
*1886 _1775_
*1887 _1776_
*1888 _1777_
*1889 _1778_
*1890 _1779_
*1891 _1780_
*1892 _1781_
*1893 _1782_
*1894 _1783_
*1895 _1784_
*1896 _1785_
*1897 clknet_0_CLK
*1898 clknet_2_0__leaf_CLK
*1899 clknet_2_1__leaf_CLK
*1900 clknet_2_2__leaf_CLK
*1901 clknet_2_3__leaf_CLK
*1902 clknet_leaf_0_CLK
*1903 clknet_leaf_10_CLK
*1904 clknet_leaf_11_CLK
*1905 clknet_leaf_12_CLK
*1906 clknet_leaf_13_CLK
*1907 clknet_leaf_14_CLK
*1908 clknet_leaf_15_CLK
*1909 clknet_leaf_16_CLK
*1910 clknet_leaf_17_CLK
*1911 clknet_leaf_18_CLK
*1912 clknet_leaf_19_CLK
*1913 clknet_leaf_1_CLK
*1914 clknet_leaf_20_CLK
*1915 clknet_leaf_21_CLK
*1916 clknet_leaf_22_CLK
*1917 clknet_leaf_23_CLK
*1918 clknet_leaf_24_CLK
*1919 clknet_leaf_25_CLK
*1920 clknet_leaf_26_CLK
*1921 clknet_leaf_27_CLK
*1922 clknet_leaf_28_CLK
*1923 clknet_leaf_29_CLK
*1924 clknet_leaf_2_CLK
*1925 clknet_leaf_30_CLK
*1926 clknet_leaf_31_CLK
*1927 clknet_leaf_33_CLK
*1928 clknet_leaf_34_CLK
*1929 clknet_leaf_35_CLK
*1930 clknet_leaf_36_CLK
*1931 clknet_leaf_37_CLK
*1932 clknet_leaf_38_CLK
*1933 clknet_leaf_39_CLK
*1934 clknet_leaf_3_CLK
*1935 clknet_leaf_40_CLK
*1936 clknet_leaf_41_CLK
*1937 clknet_leaf_42_CLK
*1938 clknet_leaf_43_CLK
*1939 clknet_leaf_44_CLK
*1940 clknet_leaf_4_CLK
*1941 clknet_leaf_5_CLK
*1942 clknet_leaf_6_CLK
*1943 clknet_leaf_7_CLK
*1944 clknet_leaf_8_CLK
*1945 clknet_leaf_9_CLK
*1946 myPWM\.g_pwm_channel\[0\]\.CHANNEL\.alignment
*1947 myPWM\.g_pwm_channel\[0\]\.CHANNEL\.data_buff\[0\]
*1948 myPWM\.g_pwm_channel\[0\]\.CHANNEL\.data_buff\[10\]
*1949 myPWM\.g_pwm_channel\[0\]\.CHANNEL\.data_buff\[11\]
*1950 myPWM\.g_pwm_channel\[0\]\.CHANNEL\.data_buff\[12\]
*1951 myPWM\.g_pwm_channel\[0\]\.CHANNEL\.data_buff\[13\]
*1952 myPWM\.g_pwm_channel\[0\]\.CHANNEL\.data_buff\[14\]
*1953 myPWM\.g_pwm_channel\[0\]\.CHANNEL\.data_buff\[15\]
*1954 myPWM\.g_pwm_channel\[0\]\.CHANNEL\.data_buff\[16\]
*1955 myPWM\.g_pwm_channel\[0\]\.CHANNEL\.data_buff\[17\]
*1956 myPWM\.g_pwm_channel\[0\]\.CHANNEL\.data_buff\[18\]
*1957 myPWM\.g_pwm_channel\[0\]\.CHANNEL\.data_buff\[19\]
*1958 myPWM\.g_pwm_channel\[0\]\.CHANNEL\.data_buff\[1\]
*1959 myPWM\.g_pwm_channel\[0\]\.CHANNEL\.data_buff\[20\]
*1960 myPWM\.g_pwm_channel\[0\]\.CHANNEL\.data_buff\[21\]
*1961 myPWM\.g_pwm_channel\[0\]\.CHANNEL\.data_buff\[22\]
*1962 myPWM\.g_pwm_channel\[0\]\.CHANNEL\.data_buff\[23\]
*1963 myPWM\.g_pwm_channel\[0\]\.CHANNEL\.data_buff\[24\]
*1964 myPWM\.g_pwm_channel\[0\]\.CHANNEL\.data_buff\[25\]
*1965 myPWM\.g_pwm_channel\[0\]\.CHANNEL\.data_buff\[26\]
*1966 myPWM\.g_pwm_channel\[0\]\.CHANNEL\.data_buff\[27\]
*1967 myPWM\.g_pwm_channel\[0\]\.CHANNEL\.data_buff\[28\]
*1968 myPWM\.g_pwm_channel\[0\]\.CHANNEL\.data_buff\[29\]
*1969 myPWM\.g_pwm_channel\[0\]\.CHANNEL\.data_buff\[2\]
*1970 myPWM\.g_pwm_channel\[0\]\.CHANNEL\.data_buff\[30\]
*1971 myPWM\.g_pwm_channel\[0\]\.CHANNEL\.data_buff\[31\]
*1972 myPWM\.g_pwm_channel\[0\]\.CHANNEL\.data_buff\[32\]
*1973 myPWM\.g_pwm_channel\[0\]\.CHANNEL\.data_buff\[33\]
*1974 myPWM\.g_pwm_channel\[0\]\.CHANNEL\.data_buff\[34\]
*1975 myPWM\.g_pwm_channel\[0\]\.CHANNEL\.data_buff\[35\]
*1976 myPWM\.g_pwm_channel\[0\]\.CHANNEL\.data_buff\[36\]
*1977 myPWM\.g_pwm_channel\[0\]\.CHANNEL\.data_buff\[37\]
*1978 myPWM\.g_pwm_channel\[0\]\.CHANNEL\.data_buff\[38\]
*1979 myPWM\.g_pwm_channel\[0\]\.CHANNEL\.data_buff\[39\]
*1980 myPWM\.g_pwm_channel\[0\]\.CHANNEL\.data_buff\[3\]
*1981 myPWM\.g_pwm_channel\[0\]\.CHANNEL\.data_buff\[40\]
*1982 myPWM\.g_pwm_channel\[0\]\.CHANNEL\.data_buff\[41\]
*1983 myPWM\.g_pwm_channel\[0\]\.CHANNEL\.data_buff\[42\]
*1984 myPWM\.g_pwm_channel\[0\]\.CHANNEL\.data_buff\[43\]
*1985 myPWM\.g_pwm_channel\[0\]\.CHANNEL\.data_buff\[44\]
*1986 myPWM\.g_pwm_channel\[0\]\.CHANNEL\.data_buff\[45\]
*1987 myPWM\.g_pwm_channel\[0\]\.CHANNEL\.data_buff\[46\]
*1988 myPWM\.g_pwm_channel\[0\]\.CHANNEL\.data_buff\[47\]
*1989 myPWM\.g_pwm_channel\[0\]\.CHANNEL\.data_buff\[48\]
*1990 myPWM\.g_pwm_channel\[0\]\.CHANNEL\.data_buff\[49\]
*1991 myPWM\.g_pwm_channel\[0\]\.CHANNEL\.data_buff\[4\]
*1992 myPWM\.g_pwm_channel\[0\]\.CHANNEL\.data_buff\[50\]
*1993 myPWM\.g_pwm_channel\[0\]\.CHANNEL\.data_buff\[51\]
*1994 myPWM\.g_pwm_channel\[0\]\.CHANNEL\.data_buff\[52\]
*1995 myPWM\.g_pwm_channel\[0\]\.CHANNEL\.data_buff\[53\]
*1996 myPWM\.g_pwm_channel\[0\]\.CHANNEL\.data_buff\[54\]
*1997 myPWM\.g_pwm_channel\[0\]\.CHANNEL\.data_buff\[55\]
*1998 myPWM\.g_pwm_channel\[0\]\.CHANNEL\.data_buff\[56\]
*1999 myPWM\.g_pwm_channel\[0\]\.CHANNEL\.data_buff\[57\]
*2000 myPWM\.g_pwm_channel\[0\]\.CHANNEL\.data_buff\[58\]
*2001 myPWM\.g_pwm_channel\[0\]\.CHANNEL\.data_buff\[59\]
*2002 myPWM\.g_pwm_channel\[0\]\.CHANNEL\.data_buff\[5\]
*2003 myPWM\.g_pwm_channel\[0\]\.CHANNEL\.data_buff\[60\]
*2004 myPWM\.g_pwm_channel\[0\]\.CHANNEL\.data_buff\[61\]
*2005 myPWM\.g_pwm_channel\[0\]\.CHANNEL\.data_buff\[62\]
*2006 myPWM\.g_pwm_channel\[0\]\.CHANNEL\.data_buff\[63\]
*2007 myPWM\.g_pwm_channel\[0\]\.CHANNEL\.data_buff\[6\]
*2008 myPWM\.g_pwm_channel\[0\]\.CHANNEL\.data_buff\[7\]
*2009 myPWM\.g_pwm_channel\[0\]\.CHANNEL\.data_buff\[8\]
*2010 myPWM\.g_pwm_channel\[0\]\.CHANNEL\.data_buff\[9\]
*2011 myPWM\.g_pwm_channel\[0\]\.CHANNEL\.data_double_buff\[0\]
*2012 myPWM\.g_pwm_channel\[0\]\.CHANNEL\.data_double_buff\[10\]
*2013 myPWM\.g_pwm_channel\[0\]\.CHANNEL\.data_double_buff\[11\]
*2014 myPWM\.g_pwm_channel\[0\]\.CHANNEL\.data_double_buff\[12\]
*2015 myPWM\.g_pwm_channel\[0\]\.CHANNEL\.data_double_buff\[13\]
*2016 myPWM\.g_pwm_channel\[0\]\.CHANNEL\.data_double_buff\[14\]
*2017 myPWM\.g_pwm_channel\[0\]\.CHANNEL\.data_double_buff\[15\]
*2018 myPWM\.g_pwm_channel\[0\]\.CHANNEL\.data_double_buff\[16\]
*2019 myPWM\.g_pwm_channel\[0\]\.CHANNEL\.data_double_buff\[17\]
*2020 myPWM\.g_pwm_channel\[0\]\.CHANNEL\.data_double_buff\[18\]
*2021 myPWM\.g_pwm_channel\[0\]\.CHANNEL\.data_double_buff\[19\]
*2022 myPWM\.g_pwm_channel\[0\]\.CHANNEL\.data_double_buff\[1\]
*2023 myPWM\.g_pwm_channel\[0\]\.CHANNEL\.data_double_buff\[20\]
*2024 myPWM\.g_pwm_channel\[0\]\.CHANNEL\.data_double_buff\[21\]