*SPEF "ieee 1481-1999"
*DESIGN "sample_proj"
*DATE "10:25:17 Wednesday September 25, 2024"
*VENDOR "The OpenROAD Project"
*PROGRAM "OpenROAD"
*VERSION "b16bda7e82721d10566ff7e2b68f1ff0be9f9e38"
*DESIGN_FLOW "NAME_SCOPE LOCAL" "PIN_CAP NONE"
*DIVIDER /
*DELIMITER :
*BUS_DELIMITER []
*T_UNIT 1 NS
*C_UNIT 1 PF
*R_UNIT 1 OHM
*L_UNIT 1 HENRY

*NAME_MAP
*3 clk
*4 done
*5 enable
*6 nrst
*7 out[0]
*8 out[10]
*9 out[11]
*10 out[12]
*11 out[13]
*12 out[14]
*13 out[15]
*14 out[16]
*15 out[17]
*16 out[18]
*17 out[19]
*18 out[1]
*19 out[20]
*20 out[21]
*21 out[22]
*22 out[23]
*23 out[24]
*24 out[25]
*25 out[26]
*26 out[27]
*27 out[28]
*28 out[29]
*29 out[2]
*30 out[30]
*31 out[31]
*32 out[32]
*33 out[33]
*34 out[3]
*35 out[4]
*36 out[5]
*37 out[6]
*38 out[7]
*39 out[8]
*40 out[9]
*41 prescaler[0]
*42 prescaler[10]
*43 prescaler[11]
*44 prescaler[12]
*45 prescaler[13]
*46 prescaler[1]
*47 prescaler[2]
*48 prescaler[3]
*49 prescaler[4]
*50 prescaler[5]
*51 prescaler[6]
*52 prescaler[7]
*53 prescaler[8]
*54 prescaler[9]
*55 stop
*56 _0000_
*57 _0001_
*58 _0002_
*59 _0003_
*60 _0004_
*61 _0005_
*62 _0006_
*63 _0007_
*64 _0008_
*65 _0009_
*66 _0010_
*67 _0011_
*68 _0012_
*69 _0013_
*70 _0014_
*71 _0015_
*72 _0016_
*73 _0017_
*74 _0018_
*75 _0019_
*76 _0020_
*77 _0021_
*78 _0022_
*79 _0023_
*80 _0024_
*81 _0025_
*82 _0026_
*83 _0027_
*84 _0028_
*85 _0029_
*86 _0030_
*87 _0031_
*88 _0032_
*89 _0033_
*90 _0034_
*91 _0035_
*92 _0036_
*93 _0037_
*94 _0038_
*95 _0039_
*96 _0040_
*97 _0041_
*98 _0042_
*99 _0043_
*100 _0044_
*101 _0045_
*102 _0046_
*103 _0047_
*104 _0048_
*105 _0049_
*106 _0050_
*107 _0051_
*108 _0052_
*109 _0053_
*110 _0054_
*111 _0055_
*112 _0056_
*113 _0057_
*114 _0058_
*115 _0059_
*116 _0060_
*117 _0061_
*118 _0062_
*119 _0063_
*120 _0064_
*121 _0065_
*122 _0066_
*123 _0067_
*124 _0068_
*125 _0069_
*126 _0070_
*127 _0071_
*128 _0072_
*129 _0073_
*130 _0074_
*131 _0075_
*132 _0076_
*133 _0077_
*134 _0078_
*135 _0079_
*136 _0080_
*137 _0081_
*138 _0082_
*139 _0083_
*140 _0084_
*141 _0085_
*142 _0086_
*143 _0087_
*144 _0088_
*145 _0089_
*146 _0090_
*147 _0091_
*148 _0092_
*149 _0093_
*150 _0094_
*151 _0095_
*152 _0096_
*153 _0097_
*154 _0098_
*155 _0099_
*156 _0100_
*157 _0101_
*158 _0102_
*159 _0103_
*160 _0104_
*161 _0105_
*162 _0106_
*163 _0107_
*164 _0108_
*165 _0109_
*166 _0110_
*167 _0111_
*168 _0112_
*169 _0113_
*170 _0114_
*171 _0115_
*172 _0116_
*173 _0117_
*174 _0118_
*175 _0119_
*176 _0120_
*177 _0121_
*178 _0122_
*179 _0123_
*180 _0124_
*181 _0125_
*182 _0126_
*183 _0127_
*184 _0128_
*185 _0129_
*186 _0130_
*187 _0131_
*188 _0132_
*189 _0133_
*190 _0134_
*191 _0135_
*192 _0136_
*193 _0137_
*194 _0138_
*195 _0139_
*196 _0140_
*197 _0141_
*198 _0142_
*199 _0143_
*200 _0144_
*201 _0145_
*202 _0146_
*203 _0147_
*204 _0148_
*205 _0149_
*206 _0150_
*207 _0151_
*208 _0152_
*209 _0153_
*210 _0154_
*211 _0155_
*212 _0156_
*213 _0157_
*214 _0158_
*215 _0159_
*216 _0160_
*217 _0161_
*218 _0162_
*219 _0163_
*220 _0164_
*221 _0165_
*222 _0166_
*223 _0167_
*224 _0168_
*225 _0169_
*226 _0170_
*227 _0171_
*228 _0172_
*229 _0173_
*230 _0174_
*231 _0175_
*232 _0176_
*233 _0177_
*234 _0178_
*235 _0179_
*236 _0180_
*237 _0181_
*238 _0182_
*239 _0183_
*240 _0184_
*241 _0185_
*242 _0186_
*243 _0187_
*244 _0188_
*245 _0189_
*246 _0190_
*247 _0191_
*248 _0192_
*249 _0193_
*250 _0194_
*251 _0195_
*252 _0196_
*253 _0197_
*254 _0198_
*255 _0199_
*256 _0200_
*257 _0201_
*258 _0202_
*259 _0203_
*260 _0204_
*261 _0205_
*262 _0206_
*263 _0207_
*264 _0208_
*265 _0209_
*266 _0210_
*267 _0211_
*268 _0212_
*269 _0213_
*270 _0214_
*271 _0215_
*272 _0216_
*273 _0217_
*274 _0218_
*275 _0219_
*276 _0220_
*277 _0221_
*278 _0222_
*279 _0223_
*280 _0224_
*281 _0225_
*282 _0226_
*283 _0227_
*284 _0228_
*285 _0229_
*286 _0230_
*287 _0231_
*288 _0232_
*289 _0233_
*290 _0234_
*291 _0235_
*292 _0236_
*293 _0237_
*294 _0238_
*295 _0239_
*296 _0240_
*297 _0241_
*298 _0242_
*299 _0243_
*300 _0244_
*301 _0245_
*302 _0246_
*303 _0247_
*304 _0248_
*305 _0249_
*306 _0250_
*307 _0251_
*308 _0252_
*309 _0253_
*310 _0254_
*311 _0255_
*312 _0256_
*313 _0257_
*314 _0258_
*315 _0259_
*316 _0260_
*317 _0261_
*318 _0262_
*319 _0263_
*320 _0264_
*321 _0265_
*322 _0266_
*323 _0267_
*324 _0268_
*325 _0269_
*326 _0270_
*327 _0271_
*328 _0272_
*329 _0273_
*330 _0274_
*331 _0275_
*332 _0276_
*333 _0277_
*334 _0278_
*335 _0279_
*336 _0280_
*337 _0281_
*338 _0282_
*339 _0283_
*340 _0284_
*341 _0285_
*342 _0286_
*343 _0287_
*344 _0288_
*345 _0289_
*346 _0290_
*347 _0291_
*348 _0292_
*349 _0293_
*350 _0294_
*351 _0295_
*352 _0296_
*353 _0297_
*354 _0298_
*355 _0299_
*356 _0300_
*357 _0301_
*358 _0302_
*359 _0303_
*360 _0304_
*361 _0305_
*362 _0306_
*363 _0307_
*364 _0308_
*365 _0309_
*366 _0310_
*367 _0311_
*368 _0312_
*369 _0313_
*370 _0314_
*371 _0315_
*372 _0316_
*373 _0317_
*374 _0318_
*375 _0319_
*376 _0320_
*377 _0321_
*378 _0322_
*379 _0323_
*380 _0324_
*381 _0325_
*382 _0326_
*383 _0327_
*384 _0328_
*385 _0329_
*386 _0330_
*387 _0331_
*388 _0332_
*389 _0333_
*390 _0334_
*391 _0335_
*392 _0336_
*393 _0337_
*394 _0338_
*395 _0339_
*396 _0340_
*397 _0341_
*398 _0342_
*399 _0343_
*400 _0344_
*401 _0345_
*402 _0346_
*403 _0347_
*404 _0348_
*405 _0349_
*406 _0350_
*407 _0351_
*408 _0352_
*409 _0353_
*410 _0354_
*411 _0355_
*412 _0356_
*413 _0357_
*414 _0358_
*415 _0359_
*416 _0360_
*417 _0361_
*418 _0362_
*419 _0363_
*420 _0364_
*421 _0365_
*422 _0366_
*423 _0367_
*424 _0368_
*425 _0369_
*426 _0370_
*427 _0371_
*428 _0372_
*429 _0373_
*430 _0374_
*431 _0375_
*432 _0376_
*433 _0377_
*434 _0378_
*435 _0379_
*436 _0380_
*437 _0381_
*438 _0382_
*439 _0383_
*440 _0384_
*441 _0385_
*442 _0386_
*443 _0387_
*444 _0388_
*445 _0389_
*446 _0390_
*447 _0391_
*448 _0392_
*449 _0393_
*450 _0394_
*451 _0395_
*452 _0396_
*453 _0397_
*454 _0398_
*455 _0399_
*456 _0400_
*457 _0401_
*458 _0402_
*459 _0403_
*460 _0404_
*461 _0405_
*462 _0406_
*463 _0407_
*464 _0408_
*465 _0409_
*466 _0410_
*467 _0411_
*468 _0412_
*469 _0413_
*470 _0414_
*471 _0415_
*472 _0416_
*473 _0417_
*474 _0418_
*475 _0419_
*476 _0420_
*477 _0421_
*478 _0422_
*479 _0423_
*480 _0424_
*481 _0425_
*482 _0426_
*483 _0427_
*484 _0428_
*485 _0429_
*486 _0430_
*487 _0431_
*488 _0432_
*489 _0433_
*490 _0434_
*491 _0435_
*492 _0436_
*493 _0437_
*494 _0438_
*495 _0439_
*496 _0440_
*497 _0441_
*498 _0442_
*499 _0443_
*500 _0444_
*501 _0445_
*502 _0446_
*503 _0447_
*504 _0448_
*505 _0449_
*506 _0450_
*507 _0451_
*508 _0452_
*509 _0453_
*510 _0454_
*511 _0455_
*512 _0456_
*513 _0457_
*514 _0458_
*515 _0459_
*516 _0460_
*517 _0461_
*518 _0462_
*519 _0463_
*520 _0464_
*521 _0465_
*522 _0466_
*523 _0467_
*524 _0468_
*525 _0469_
*526 _0470_
*527 _0471_
*528 _0472_
*529 _0473_
*530 _0474_
*531 _0475_
*532 _0476_
*533 _0477_
*534 _0478_
*535 _0479_
*536 _0480_
*537 _0481_
*538 _0482_
*539 _0483_
*540 _0484_
*541 _0485_
*542 _0486_
*543 _0487_
*544 _0488_
*545 _0489_
*546 _0490_
*547 _0491_
*548 _0492_
*549 _0493_
*550 _0494_
*551 _0495_
*552 _0496_
*553 _0497_
*554 _0498_
*555 _0499_
*556 _0500_
*557 _0501_
*558 _0502_
*559 _0503_
*560 _0504_
*561 _0505_
*562 _0506_
*563 _0507_
*564 _0508_
*565 _0509_
*566 _0510_
*567 _0511_
*568 _0512_
*569 _0513_
*570 _0514_
*571 _0515_
*572 _0516_
*573 _0517_
*574 _0518_
*575 _0519_
*576 _0520_
*577 _0521_
*578 _0522_
*579 _0523_
*580 _0524_
*581 _0525_
*582 _0526_
*583 _0527_
*584 _0528_
*585 _0529_
*586 _0530_
*587 _0531_
*588 _0532_
*589 _0533_
*590 _0534_
*591 _0535_
*592 _0536_
*593 _0537_
*594 _0538_
*595 _0539_
*596 _0540_
*597 _0541_
*598 _0542_
*599 _0543_
*600 _0544_
*601 _0545_
*602 _0546_
*603 _0547_
*604 _0548_
*605 _0549_
*606 _0550_
*607 _0551_
*608 _0552_
*609 _0553_
*610 _0554_
*611 _0555_
*612 _0556_
*613 _0557_
*614 _0558_
*615 _0559_
*616 _0560_
*617 _0561_
*618 _0562_
*619 _0563_
*620 _0564_
*621 _0565_
*622 _0566_
*623 _0567_
*624 _0568_
*625 _0569_
*626 _0570_
*627 _0571_
*628 _0572_
*629 _0573_
*630 _0574_
*631 _0575_
*632 _0576_
*633 _0577_
*634 _0578_
*635 _0579_
*636 _0580_
*637 _0581_
*638 _0582_
*639 _0583_
*640 _0584_
*641 _0585_
*642 _0586_
*643 _0587_
*644 _0588_
*645 _0589_
*646 _0590_
*647 _0591_
*648 _0592_
*649 _0593_
*650 _0594_
*651 _0595_
*652 _0596_
*653 _0597_
*654 _0598_
*655 _0599_
*656 _0600_
*657 _0601_
*658 _0602_
*659 _0603_
*660 _0604_
*661 _0605_
*662 _0606_
*663 _0607_
*664 _0608_
*665 _0609_
*666 _0610_
*667 _0611_
*668 _0612_
*669 _0613_
*670 _0614_
*671 _0615_
*672 _0616_
*673 _0617_
*674 _0618_
*675 _0619_
*676 _0620_
*677 clk_divider\.count_out\[0\]
*678 clk_divider\.count_out\[10\]
*679 clk_divider\.count_out\[11\]
*680 clk_divider\.count_out\[12\]
*681 clk_divider\.count_out\[13\]
*682 clk_divider\.count_out\[14\]
*683 clk_divider\.count_out\[15\]
*684 clk_divider\.count_out\[16\]
*685 clk_divider\.count_out\[17\]
*686 clk_divider\.count_out\[18\]
*687 clk_divider\.count_out\[19\]
*688 clk_divider\.count_out\[1\]
*689 clk_divider\.count_out\[20\]
*690 clk_divider\.count_out\[21\]
*691 clk_divider\.count_out\[22\]
*692 clk_divider\.count_out\[23\]
*693 clk_divider\.count_out\[24\]
*694 clk_divider\.count_out\[25\]
*695 clk_divider\.count_out\[26\]
*696 clk_divider\.count_out\[27\]
*697 clk_divider\.count_out\[2\]
*698 clk_divider\.count_out\[3\]
*699 clk_divider\.count_out\[4\]
*700 clk_divider\.count_out\[5\]
*701 clk_divider\.count_out\[6\]
*702 clk_divider\.count_out\[7\]
*703 clk_divider\.count_out\[8\]
*704 clk_divider\.count_out\[9\]
*705 clk_divider\.next_count\[0\]
*706 clk_divider\.next_count\[10\]
*707 clk_divider\.next_count\[11\]
*708 clk_divider\.next_count\[12\]
*709 clk_divider\.next_count\[13\]
*710 clk_divider\.next_count\[14\]
*711 clk_divider\.next_count\[15\]
*712 clk_divider\.next_count\[16\]
*713 clk_divider\.next_count\[17\]
*714 clk_divider\.next_count\[18\]
*715 clk_divider\.next_count\[19\]
*716 clk_divider\.next_count\[1\]
*717 clk_divider\.next_count\[20\]
*718 clk_divider\.next_count\[21\]
*719 clk_divider\.next_count\[22\]
*720 clk_divider\.next_count\[23\]
*721 clk_divider\.next_count\[24\]
*722 clk_divider\.next_count\[25\]
*723 clk_divider\.next_count\[26\]
*724 clk_divider\.next_count\[27\]
*725 clk_divider\.next_count\[2\]
*726 clk_divider\.next_count\[3\]
*727 clk_divider\.next_count\[4\]
*728 clk_divider\.next_count\[5\]
*729 clk_divider\.next_count\[6\]
*730 clk_divider\.next_count\[7\]
*731 clk_divider\.next_count\[8\]
*732 clk_divider\.next_count\[9\]
*733 clk_divider\.next_flag
*734 clk_divider\.rollover_flag
*735 clknet_0_clk
*736 clknet_2_0__leaf_clk
*737 clknet_2_1__leaf_clk
*738 clknet_2_2__leaf_clk
*739 clknet_2_3__leaf_clk
*740 counter_to_35\.count_out\[0\]
*741 counter_to_35\.count_out\[1\]
*742 counter_to_35\.count_out\[2\]
*743 counter_to_35\.count_out\[3\]
*744 counter_to_35\.count_out\[4\]
*745 counter_to_35\.count_out\[5\]
*746 counter_to_35\.next_count\[0\]
*747 counter_to_35\.next_count\[1\]
*748 counter_to_35\.next_count\[2\]
*749 counter_to_35\.next_count\[3\]
*750 counter_to_35\.next_count\[4\]
*751 counter_to_35\.next_count\[5\]
*752 counter_to_35\.next_flag
*753 net1
*754 net10
*755 net11
*756 net12
*757 net13
*758 net14
*759 net15
*760 net16
*761 net17
*762 net18
*763 net19
*764 net2
*765 net20
*766 net21
*767 net22
*768 net23
*769 net24
*770 net25
*771 net26
*772 net27
*773 net28
*774 net29
*775 net3
*776 net30
*777 net31
*778 net32
*779 net33
*780 net34
*781 net35
*782 net36
*783 net37
*784 net38
*785 net39
*786 net4
*787 net40
*788 net41
*789 net42
*790 net43
*791 net44
*792 net45
*793 net46
*794 net47
*795 net48
*796 net49
*797 net5
*798 net50
*799 net51
*800 net52
*801 net53
*802 net54
*803 net55
*804 net56
*805 net57
*806 net58
*807 net59
*808 net6
*809 net60
*810 net61
*811 net62
*812 net63
*813 net64
*814 net65
*815 net66
*816 net67
*817 net68
*818 net69
*819 net7
*820 net70
*821 net71
*822 net72
*823 net73
*824 net74
*825 net75
*826 net76
*827 net77
*828 net78
*829 net79
*830 net8
*831 net80
*832 net81
*833 net82
*834 net83
*835 net84
*836 net85
*837 net86
*838 net87
*839 net88
*840 net89
*841 net9
*842 net90
*843 net91
*844 FILLER_0_0_109
*845 FILLER_0_0_113
*846 FILLER_0_0_125
*847 FILLER_0_0_137
*848 FILLER_0_0_141
*849 FILLER_0_0_15
*850 FILLER_0_0_153
*851 FILLER_0_0_165
*852 FILLER_0_0_169
*853 FILLER_0_0_181
*854 FILLER_0_0_193
*855 FILLER_0_0_197
*856 FILLER_0_0_209
*857 FILLER_0_0_221
*858 FILLER_0_0_225
*859 FILLER_0_0_237
*860 FILLER_0_0_249
*861 FILLER_0_0_253
*862 FILLER_0_0_265
*863 FILLER_0_0_27
*864 FILLER_0_0_277
*865 FILLER_0_0_281
*866 FILLER_0_0_289
*867 FILLER_0_0_29
*868 FILLER_0_0_3
*869 FILLER_0_0_41
*870 FILLER_0_0_49
*871 FILLER_0_0_55
*872 FILLER_0_0_57
*873 FILLER_0_0_69
*874 FILLER_0_0_77
*875 FILLER_0_0_85
*876 FILLER_0_0_97
*877 FILLER_0_10_102
*878 FILLER_0_10_110
*879 FILLER_0_10_119
*880 FILLER_0_10_125
*881 FILLER_0_10_133
*882 FILLER_0_10_139
*883 FILLER_0_10_141
*884 FILLER_0_10_15
*885 FILLER_0_10_153
*886 FILLER_0_10_161
*887 FILLER_0_10_169
*888 FILLER_0_10_176
*889 FILLER_0_10_194
*890 FILLER_0_10_205
*891 FILLER_0_10_229
*892 FILLER_0_10_251
*893 FILLER_0_10_27
*894 FILLER_0_10_273
*895 FILLER_0_10_285
*896 FILLER_0_10_3
*897 FILLER_0_10_43
*898 FILLER_0_10_55
*899 FILLER_0_10_61
*900 FILLER_0_10_69
*901 FILLER_0_10_77
*902 FILLER_0_10_82
*903 FILLER_0_10_90
*904 FILLER_0_11_108
*905 FILLER_0_11_113
*906 FILLER_0_11_119
*907 FILLER_0_11_131
*908 FILLER_0_11_143
*909 FILLER_0_11_15
*910 FILLER_0_11_155
*911 FILLER_0_11_167
*912 FILLER_0_11_178
*913 FILLER_0_11_187
*914 FILLER_0_11_199
*915 FILLER_0_11_211
*916 FILLER_0_11_223
*917 FILLER_0_11_225
*918 FILLER_0_11_237
*919 FILLER_0_11_245
*920 FILLER_0_11_266
*921 FILLER_0_11_278
*922 FILLER_0_11_281
*923 FILLER_0_11_289
*924 FILLER_0_11_3
*925 FILLER_0_11_32
*926 FILLER_0_11_44
*927 FILLER_0_11_49
*928 FILLER_0_11_55
*929 FILLER_0_11_57
*930 FILLER_0_11_76
*931 FILLER_0_11_84
*932 FILLER_0_11_90
*933 FILLER_0_11_96
*934 FILLER_0_12_119
*935 FILLER_0_12_130
*936 FILLER_0_12_138
*937 FILLER_0_12_141
*938 FILLER_0_12_15
*939 FILLER_0_12_153
*940 FILLER_0_12_165
*941 FILLER_0_12_177
*942 FILLER_0_12_185
*943 FILLER_0_12_190
*944 FILLER_0_12_202
*945 FILLER_0_12_210
*946 FILLER_0_12_217
*947 FILLER_0_12_229
*948 FILLER_0_12_241
*949 FILLER_0_12_249
*950 FILLER_0_12_253
*951 FILLER_0_12_265
*952 FILLER_0_12_277
*953 FILLER_0_12_289
*954 FILLER_0_12_29
*955 FILLER_0_12_3
*956 FILLER_0_12_37
*957 FILLER_0_12_50
*958 FILLER_0_12_62
*959 FILLER_0_12_77
*960 FILLER_0_12_83
*961 FILLER_0_12_85
*962 FILLER_0_12_97
*963 FILLER_0_13_108
*964 FILLER_0_13_113
*965 FILLER_0_13_121
*966 FILLER_0_13_133
*967 FILLER_0_13_145
*968 FILLER_0_13_149
*969 FILLER_0_13_15
*970 FILLER_0_13_160
*971 FILLER_0_13_166
*972 FILLER_0_13_169
*973 FILLER_0_13_181
*974 FILLER_0_13_189
*975 FILLER_0_13_196
*976 FILLER_0_13_208
*977 FILLER_0_13_223
*978 FILLER_0_13_225
*979 FILLER_0_13_237
*980 FILLER_0_13_249
*981 FILLER_0_13_254
*982 FILLER_0_13_266
*983 FILLER_0_13_27
*984 FILLER_0_13_278
*985 FILLER_0_13_281
*986 FILLER_0_13_289
*987 FILLER_0_13_3
*988 FILLER_0_13_40
*989 FILLER_0_13_49
*990 FILLER_0_13_55
*991 FILLER_0_13_57
*992 FILLER_0_13_65
*993 FILLER_0_13_71
*994 FILLER_0_13_84
*995 FILLER_0_13_96
*996 FILLER_0_14_100
*997 FILLER_0_14_106
*998 FILLER_0_14_110
*999 FILLER_0_14_122
*1000 FILLER_0_14_127
*1001 FILLER_0_14_131
*1002 FILLER_0_14_148
*1003 FILLER_0_14_157
*1004 FILLER_0_14_165
*1005 FILLER_0_14_17
*1006 FILLER_0_14_181
*1007 FILLER_0_14_191
*1008 FILLER_0_14_195
*1009 FILLER_0_14_197
*1010 FILLER_0_14_205
*1011 FILLER_0_14_227
*1012 FILLER_0_14_239
*1013 FILLER_0_14_25
*1014 FILLER_0_14_250
*1015 FILLER_0_14_273
*1016 FILLER_0_14_285
*1017 FILLER_0_14_29
*1018 FILLER_0_14_3
*1019 FILLER_0_14_41
*1020 FILLER_0_14_53
*1021 FILLER_0_14_65
*1022 FILLER_0_14_69
*1023 FILLER_0_14_76
*1024 FILLER_0_14_9
*1025 FILLER_0_15_102
*1026 FILLER_0_15_108
*1027 FILLER_0_15_113
*1028 FILLER_0_15_124
*1029 FILLER_0_15_131
*1030 FILLER_0_15_139
*1031 FILLER_0_15_16
*1032 FILLER_0_15_196
*1033 FILLER_0_15_202
*1034 FILLER_0_15_222
*1035 FILLER_0_15_225
*1036 FILLER_0_15_233
*1037 FILLER_0_15_264
*1038 FILLER_0_15_276
*1039 FILLER_0_15_281
*1040 FILLER_0_15_289
*1041 FILLER_0_15_29
*1042 FILLER_0_15_3
*1043 FILLER_0_15_41
*1044 FILLER_0_15_54
*1045 FILLER_0_15_69
*1046 FILLER_0_15_90
*1047 FILLER_0_16_127
*1048 FILLER_0_16_131
*1049 FILLER_0_16_139
*1050 FILLER_0_16_141
*1051 FILLER_0_16_18
*1052 FILLER_0_16_188
*1053 FILLER_0_16_197
*1054 FILLER_0_16_219
*1055 FILLER_0_16_231
*1056 FILLER_0_16_250
*1057 FILLER_0_16_253
*1058 FILLER_0_16_26
*1059 FILLER_0_16_260
*1060 FILLER_0_16_272
*1061 FILLER_0_16_284
*1062 FILLER_0_16_29
*1063 FILLER_0_16_290
*1064 FILLER_0_16_3
*1065 FILLER_0_16_41
*1066 FILLER_0_16_53
*1067 FILLER_0_16_68
*1068 FILLER_0_16_80
*1069 FILLER_0_16_85
*1070 FILLER_0_16_93
*1071 FILLER_0_17_105
*1072 FILLER_0_17_126
*1073 FILLER_0_17_138
*1074 FILLER_0_17_150
*1075 FILLER_0_17_17
*1076 FILLER_0_17_180
*1077 FILLER_0_17_188
*1078 FILLER_0_17_223
*1079 FILLER_0_17_225
*1080 FILLER_0_17_237
*1081 FILLER_0_17_246
*1082 FILLER_0_17_258
*1083 FILLER_0_17_270
*1084 FILLER_0_17_278
*1085 FILLER_0_17_281
*1086 FILLER_0_17_289
*1087 FILLER_0_17_29
*1088 FILLER_0_17_35
*1089 FILLER_0_17_46
*1090 FILLER_0_17_54
*1091 FILLER_0_17_57
*1092 FILLER_0_17_69
*1093 FILLER_0_17_73
*1094 FILLER_0_17_85
*1095 FILLER_0_17_9
*1096 FILLER_0_17_97
*1097 FILLER_0_18_115
*1098 FILLER_0_18_131
*1099 FILLER_0_18_139
*1100 FILLER_0_18_141
*1101 FILLER_0_18_15
*1102 FILLER_0_18_153
*1103 FILLER_0_18_161
*1104 FILLER_0_18_176
*1105 FILLER_0_18_184
*1106 FILLER_0_18_188
*1107 FILLER_0_18_215
*1108 FILLER_0_18_224
*1109 FILLER_0_18_236
*1110 FILLER_0_18_248
*1111 FILLER_0_18_253
*1112 FILLER_0_18_265
*1113 FILLER_0_18_277
*1114 FILLER_0_18_289
*1115 FILLER_0_18_3
*1116 FILLER_0_18_32
*1117 FILLER_0_18_44
*1118 FILLER_0_18_50
*1119 FILLER_0_18_80
*1120 FILLER_0_18_85
*1121 FILLER_0_18_97
*1122 FILLER_0_19_106
*1123 FILLER_0_19_113
*1124 FILLER_0_19_125
*1125 FILLER_0_19_137
*1126 FILLER_0_19_14
*1127 FILLER_0_19_149
*1128 FILLER_0_19_162
*1129 FILLER_0_19_169
*1130 FILLER_0_19_185
*1131 FILLER_0_19_189
*1132 FILLER_0_19_220
*1133 FILLER_0_19_230
*1134 FILLER_0_19_238
*1135 FILLER_0_19_247
*1136 FILLER_0_19_259
*1137 FILLER_0_19_26
*1138 FILLER_0_19_271
*1139 FILLER_0_19_279
*1140 FILLER_0_19_281
*1141 FILLER_0_19_289
*1142 FILLER_0_19_3
*1143 FILLER_0_19_38
*1144 FILLER_0_19_42
*1145 FILLER_0_19_57
*1146 FILLER_0_19_61
*1147 FILLER_0_19_73
*1148 FILLER_0_19_94
*1149 FILLER_0_1_105
*1150 FILLER_0_1_111
*1151 FILLER_0_1_113
*1152 FILLER_0_1_125
*1153 FILLER_0_1_137
*1154 FILLER_0_1_149
*1155 FILLER_0_1_15
*1156 FILLER_0_1_161
*1157 FILLER_0_1_167
*1158 FILLER_0_1_169
*1159 FILLER_0_1_181
*1160 FILLER_0_1_193
*1161 FILLER_0_1_205
*1162 FILLER_0_1_217
*1163 FILLER_0_1_223
*1164 FILLER_0_1_225
*1165 FILLER_0_1_237
*1166 FILLER_0_1_249
*1167 FILLER_0_1_261
*1168 FILLER_0_1_27
*1169 FILLER_0_1_273
*1170 FILLER_0_1_279
*1171 FILLER_0_1_281
*1172 FILLER_0_1_289
*1173 FILLER_0_1_3
*1174 FILLER_0_1_39
*1175 FILLER_0_1_51
*1176 FILLER_0_1_55
*1177 FILLER_0_1_57
*1178 FILLER_0_1_69
*1179 FILLER_0_1_81
*1180 FILLER_0_1_93
*1181 FILLER_0_20_110
*1182 FILLER_0_20_118
*1183 FILLER_0_20_130
*1184 FILLER_0_20_138
*1185 FILLER_0_20_16
*1186 FILLER_0_20_167
*1187 FILLER_0_20_175
*1188 FILLER_0_20_183
*1189 FILLER_0_20_195
*1190 FILLER_0_20_197
*1191 FILLER_0_20_212
*1192 FILLER_0_20_224
*1193 FILLER_0_20_231
*1194 FILLER_0_20_247
*1195 FILLER_0_20_251
*1196 FILLER_0_20_260
*1197 FILLER_0_20_272
*1198 FILLER_0_20_284
*1199 FILLER_0_20_29
*1200 FILLER_0_20_290
*1201 FILLER_0_20_3
*1202 FILLER_0_20_41
*1203 FILLER_0_20_53
*1204 FILLER_0_20_61
*1205 FILLER_0_20_74
*1206 FILLER_0_20_98
*1207 FILLER_0_21_102
*1208 FILLER_0_21_106
*1209 FILLER_0_21_116
*1210 FILLER_0_21_127
*1211 FILLER_0_21_139
*1212 FILLER_0_21_14
*1213 FILLER_0_21_143
*1214 FILLER_0_21_153
*1215 FILLER_0_21_161
*1216 FILLER_0_21_167
*1217 FILLER_0_21_169
*1218 FILLER_0_21_181
*1219 FILLER_0_21_191
*1220 FILLER_0_21_203
*1221 FILLER_0_21_215
*1222 FILLER_0_21_223
*1223 FILLER_0_21_25
*1224 FILLER_0_21_270
*1225 FILLER_0_21_278
*1226 FILLER_0_21_281
*1227 FILLER_0_21_45
*1228 FILLER_0_21_53
*1229 FILLER_0_21_64
*1230 FILLER_0_21_76
*1231 FILLER_0_21_86
*1232 FILLER_0_21_98
*1233 FILLER_0_22_105
*1234 FILLER_0_22_135
*1235 FILLER_0_22_139
*1236 FILLER_0_22_141
*1237 FILLER_0_22_147
*1238 FILLER_0_22_154
*1239 FILLER_0_22_166
*1240 FILLER_0_22_17
*1241 FILLER_0_22_170
*1242 FILLER_0_22_181
*1243 FILLER_0_22_191
*1244 FILLER_0_22_195
*1245 FILLER_0_22_204
*1246 FILLER_0_22_219
*1247 FILLER_0_22_225
*1248 FILLER_0_22_239
*1249 FILLER_0_22_25
*1250 FILLER_0_22_251
*1251 FILLER_0_22_259
*1252 FILLER_0_22_271
*1253 FILLER_0_22_283
*1254 FILLER_0_22_3
*1255 FILLER_0_22_36
*1256 FILLER_0_22_44
*1257 FILLER_0_22_51
*1258 FILLER_0_22_67
*1259 FILLER_0_22_79
*1260 FILLER_0_22_83
*1261 FILLER_0_22_85
*1262 FILLER_0_22_9
*1263 FILLER_0_22_97
*1264 FILLER_0_23_109
*1265 FILLER_0_23_113
*1266 FILLER_0_23_130
*1267 FILLER_0_23_138
*1268 FILLER_0_23_148
*1269 FILLER_0_23_160
*1270 FILLER_0_23_169
*1271 FILLER_0_23_18
*1272 FILLER_0_23_225
*1273 FILLER_0_23_237
*1274 FILLER_0_23_244
*1275 FILLER_0_23_250
*1276 FILLER_0_23_262
*1277 FILLER_0_23_274
*1278 FILLER_0_23_281
*1279 FILLER_0_23_289
*1280 FILLER_0_23_3
*1281 FILLER_0_23_36
*1282 FILLER_0_23_55
*1283 FILLER_0_23_72
*1284 FILLER_0_23_76
*1285 FILLER_0_24_109
*1286 FILLER_0_24_113
*1287 FILLER_0_24_121
*1288 FILLER_0_24_133
*1289 FILLER_0_24_139
*1290 FILLER_0_24_141
*1291 FILLER_0_24_15
*1292 FILLER_0_24_153
*1293 FILLER_0_24_161
*1294 FILLER_0_24_169
*1295 FILLER_0_24_197
*1296 FILLER_0_24_209
*1297 FILLER_0_24_218
*1298 FILLER_0_24_230
*1299 FILLER_0_24_238
*1300 FILLER_0_24_249
*1301 FILLER_0_24_258
*1302 FILLER_0_24_27
*1303 FILLER_0_24_270
*1304 FILLER_0_24_282
*1305 FILLER_0_24_29
*1306 FILLER_0_24_290
*1307 FILLER_0_24_3
*1308 FILLER_0_24_40
*1309 FILLER_0_24_52
*1310 FILLER_0_24_60
*1311 FILLER_0_24_85
*1312 FILLER_0_25_102
*1313 FILLER_0_25_110
*1314 FILLER_0_25_113
*1315 FILLER_0_25_117
*1316 FILLER_0_25_126
*1317 FILLER_0_25_156
*1318 FILLER_0_25_17
*1319 FILLER_0_25_178
*1320 FILLER_0_25_186
*1321 FILLER_0_25_190
*1322 FILLER_0_25_194
*1323 FILLER_0_25_206
*1324 FILLER_0_25_218
*1325 FILLER_0_25_225
*1326 FILLER_0_25_237
*1327 FILLER_0_25_25
*1328 FILLER_0_25_262
*1329 FILLER_0_25_274
*1330 FILLER_0_25_281
*1331 FILLER_0_25_289
*1332 FILLER_0_25_47
*1333 FILLER_0_25_52
*1334 FILLER_0_25_57
*1335 FILLER_0_25_9
*1336 FILLER_0_26_107
*1337 FILLER_0_26_11
*1338 FILLER_0_26_134
*1339 FILLER_0_26_164
*1340 FILLER_0_26_176
*1341 FILLER_0_26_188
*1342 FILLER_0_26_197
*1343 FILLER_0_26_203
*1344 FILLER_0_26_251
*1345 FILLER_0_26_253
*1346 FILLER_0_26_261
*1347 FILLER_0_26_27
*1348 FILLER_0_26_273
*1349 FILLER_0_26_285
*1350 FILLER_0_26_29
*1351 FILLER_0_26_3
*1352 FILLER_0_26_35
*1353 FILLER_0_26_80
*1354 FILLER_0_27_113
*1355 FILLER_0_27_139
*1356 FILLER_0_27_147
*1357 FILLER_0_27_155
*1358 FILLER_0_27_16
*1359 FILLER_0_27_164
*1360 FILLER_0_27_169
*1361 FILLER_0_27_174
*1362 FILLER_0_27_186
*1363 FILLER_0_27_194
*1364 FILLER_0_27_211
*1365 FILLER_0_27_217
*1366 FILLER_0_27_221
*1367 FILLER_0_27_225
*1368 FILLER_0_27_236
*1369 FILLER_0_27_24
*1370 FILLER_0_27_246
*1371 FILLER_0_27_254
*1372 FILLER_0_27_263
*1373 FILLER_0_27_275
*1374 FILLER_0_27_279
*1375 FILLER_0_27_281
*1376 FILLER_0_27_289
*1377 FILLER_0_27_3
*1378 FILLER_0_27_41
*1379 FILLER_0_27_53
*1380 FILLER_0_27_57
*1381 FILLER_0_27_69
*1382 FILLER_0_27_74
*1383 FILLER_0_27_82
*1384 FILLER_0_28_104
*1385 FILLER_0_28_116
*1386 FILLER_0_28_123
*1387 FILLER_0_28_135
*1388 FILLER_0_28_139
*1389 FILLER_0_28_141
*1390 FILLER_0_28_155
*1391 FILLER_0_28_163
*1392 FILLER_0_28_197
*1393 FILLER_0_28_209
*1394 FILLER_0_28_253
*1395 FILLER_0_28_26
*1396 FILLER_0_28_265
*1397 FILLER_0_28_277
*1398 FILLER_0_28_289
*1399 FILLER_0_28_29
*1400 FILLER_0_28_41
*1401 FILLER_0_28_53
*1402 FILLER_0_28_81
*1403 FILLER_0_28_85
*1404 FILLER_0_29_101
*1405 FILLER_0_29_109
*1406 FILLER_0_29_113
*1407 FILLER_0_29_117
*1408 FILLER_0_29_129
*1409 FILLER_0_29_137
*1410 FILLER_0_29_143
*1411 FILLER_0_29_15
*1412 FILLER_0_29_154
*1413 FILLER_0_29_160
*1414 FILLER_0_29_166
*1415 FILLER_0_29_169
*1416 FILLER_0_29_214
*1417 FILLER_0_29_222
*1418 FILLER_0_29_232
*1419 FILLER_0_29_239
*1420 FILLER_0_29_251
*1421 FILLER_0_29_26
*1422 FILLER_0_29_263
*1423 FILLER_0_29_275
*1424 FILLER_0_29_279
*1425 FILLER_0_29_281
*1426 FILLER_0_29_289
*1427 FILLER_0_29_38
*1428 FILLER_0_29_44
*1429 FILLER_0_29_60
*1430 FILLER_0_29_70
*1431 FILLER_0_29_82
*1432 FILLER_0_2_109
*1433 FILLER_0_2_121
*1434 FILLER_0_2_133
*1435 FILLER_0_2_139
*1436 FILLER_0_2_141
*1437 FILLER_0_2_15
*1438 FILLER_0_2_153
*1439 FILLER_0_2_165
*1440 FILLER_0_2_177
*1441 FILLER_0_2_189
*1442 FILLER_0_2_195
*1443 FILLER_0_2_197
*1444 FILLER_0_2_209
*1445 FILLER_0_2_221
*1446 FILLER_0_2_233
*1447 FILLER_0_2_245
*1448 FILLER_0_2_251
*1449 FILLER_0_2_253
*1450 FILLER_0_2_265
*1451 FILLER_0_2_27
*1452 FILLER_0_2_277
*1453 FILLER_0_2_289
*1454 FILLER_0_2_29
*1455 FILLER_0_2_3
*1456 FILLER_0_2_41
*1457 FILLER_0_2_53
*1458 FILLER_0_2_65
*1459 FILLER_0_2_77
*1460 FILLER_0_2_83
*1461 FILLER_0_2_85
*1462 FILLER_0_2_97
*1463 FILLER_0_30_107
*1464 FILLER_0_30_119
*1465 FILLER_0_30_132
*1466 FILLER_0_30_136
*1467 FILLER_0_30_149
*1468 FILLER_0_30_15
*1469 FILLER_0_30_161
*1470 FILLER_0_30_173
*1471 FILLER_0_30_194
*1472 FILLER_0_30_197
*1473 FILLER_0_30_205
*1474 FILLER_0_30_226
*1475 FILLER_0_30_253
*1476 FILLER_0_30_265
*1477 FILLER_0_30_27
*1478 FILLER_0_30_277
*1479 FILLER_0_30_289
*1480 FILLER_0_30_29
*1481 FILLER_0_30_3
*1482 FILLER_0_30_37
*1483 FILLER_0_30_73
*1484 FILLER_0_30_95
*1485 FILLER_0_31_100
*1486 FILLER_0_31_113
*1487 FILLER_0_31_121
*1488 FILLER_0_31_131
*1489 FILLER_0_31_143
*1490 FILLER_0_31_15
*1491 FILLER_0_31_155
*1492 FILLER_0_31_167
*1493 FILLER_0_31_169
*1494 FILLER_0_31_181
*1495 FILLER_0_31_187
*1496 FILLER_0_31_215
*1497 FILLER_0_31_223
*1498 FILLER_0_31_234
*1499 FILLER_0_31_246
*1500 FILLER_0_31_258
*1501 FILLER_0_31_270
*1502 FILLER_0_31_278
*1503 FILLER_0_31_281
*1504 FILLER_0_31_289
*1505 FILLER_0_31_3
*1506 FILLER_0_31_34
*1507 FILLER_0_31_60
*1508 FILLER_0_31_72
*1509 FILLER_0_32_128
*1510 FILLER_0_32_139
*1511 FILLER_0_32_148
*1512 FILLER_0_32_160
*1513 FILLER_0_32_172
*1514 FILLER_0_32_184
*1515 FILLER_0_32_19
*1516 FILLER_0_32_197
*1517 FILLER_0_32_205
*1518 FILLER_0_32_213
*1519 FILLER_0_32_220
*1520 FILLER_0_32_235
*1521 FILLER_0_32_247
*1522 FILLER_0_32_251
*1523 FILLER_0_32_253
*1524 FILLER_0_32_265
*1525 FILLER_0_32_29
*1526 FILLER_0_32_49
*1527 FILLER_0_32_61
*1528 FILLER_0_32_76
*1529 FILLER_0_32_85
*1530 FILLER_0_32_97
*1531 FILLER_0_33_126
*1532 FILLER_0_33_148
*1533 FILLER_0_33_160
*1534 FILLER_0_33_185
*1535 FILLER_0_33_191
*1536 FILLER_0_33_205
*1537 FILLER_0_33_245
*1538 FILLER_0_33_257
*1539 FILLER_0_33_269
*1540 FILLER_0_33_277
*1541 FILLER_0_33_281
*1542 FILLER_0_33_289
*1543 FILLER_0_33_29
*1544 FILLER_0_33_3
*1545 FILLER_0_33_41
*1546 FILLER_0_33_53
*1547 FILLER_0_33_57
*1548 FILLER_0_33_64
*1549 FILLER_0_33_81
*1550 FILLER_0_33_9
*1551 FILLER_0_33_93
*1552 FILLER_0_34_105
*1553 FILLER_0_34_123
*1554 FILLER_0_34_131
*1555 FILLER_0_34_137
*1556 FILLER_0_34_19
*1557 FILLER_0_34_212
*1558 FILLER_0_34_220
*1559 FILLER_0_34_235
*1560 FILLER_0_34_247
*1561 FILLER_0_34_251
*1562 FILLER_0_34_253
*1563 FILLER_0_34_27
*1564 FILLER_0_34_276
*1565 FILLER_0_34_288
*1566 FILLER_0_34_29
*1567 FILLER_0_34_3
*1568 FILLER_0_34_41
*1569 FILLER_0_34_82
*1570 FILLER_0_34_85
*1571 FILLER_0_34_97
*1572 FILLER_0_35_101
*1573 FILLER_0_35_109
*1574 FILLER_0_35_113
*1575 FILLER_0_35_125
*1576 FILLER_0_35_137
*1577 FILLER_0_35_160
*1578 FILLER_0_35_175
*1579 FILLER_0_35_20
*1580 FILLER_0_35_205
*1581 FILLER_0_35_217
*1582 FILLER_0_35_223
*1583 FILLER_0_35_225
*1584 FILLER_0_35_237
*1585 FILLER_0_35_249
*1586 FILLER_0_35_285
*1587 FILLER_0_35_39
*1588 FILLER_0_35_44
*1589 FILLER_0_35_54
*1590 FILLER_0_35_57
*1591 FILLER_0_35_65
*1592 FILLER_0_35_89
*1593 FILLER_0_36_106
*1594 FILLER_0_36_130
*1595 FILLER_0_36_138
*1596 FILLER_0_36_141
*1597 FILLER_0_36_153
*1598 FILLER_0_36_165
*1599 FILLER_0_36_171
*1600 FILLER_0_36_177
*1601 FILLER_0_36_189
*1602 FILLER_0_36_195
*1603 FILLER_0_36_197
*1604 FILLER_0_36_209
*1605 FILLER_0_36_221
*1606 FILLER_0_36_233
*1607 FILLER_0_36_245
*1608 FILLER_0_36_25
*1609 FILLER_0_36_253
*1610 FILLER_0_36_261
*1611 FILLER_0_36_276
*1612 FILLER_0_36_284
*1613 FILLER_0_36_29
*1614 FILLER_0_36_34
*1615 FILLER_0_36_60
*1616 FILLER_0_36_72
*1617 FILLER_0_36_85
*1618 FILLER_0_36_89
*1619 FILLER_0_37_110
*1620 FILLER_0_37_113
*1621 FILLER_0_37_121
*1622 FILLER_0_37_130
*1623 FILLER_0_37_142
*1624 FILLER_0_37_154
*1625 FILLER_0_37_166
*1626 FILLER_0_37_169
*1627 FILLER_0_37_181
*1628 FILLER_0_37_203
*1629 FILLER_0_37_210
*1630 FILLER_0_37_222
*1631 FILLER_0_37_225
*1632 FILLER_0_37_233
*1633 FILLER_0_37_245
*1634 FILLER_0_37_268
*1635 FILLER_0_37_275
*1636 FILLER_0_37_279
*1637 FILLER_0_37_286
*1638 FILLER_0_37_36
*1639 FILLER_0_37_48
*1640 FILLER_0_37_57
*1641 FILLER_0_37_64
*1642 FILLER_0_37_68
*1643 FILLER_0_37_72
*1644 FILLER_0_37_77
*1645 FILLER_0_37_83
*1646 FILLER_0_37_89
*1647 FILLER_0_37_98
*1648 FILLER_0_38_11
*1649 FILLER_0_38_113
*1650 FILLER_0_38_119
*1651 FILLER_0_38_130
*1652 FILLER_0_38_138
*1653 FILLER_0_38_148
*1654 FILLER_0_38_160
*1655 FILLER_0_38_168
*1656 FILLER_0_38_174
*1657 FILLER_0_38_186
*1658 FILLER_0_38_194
*1659 FILLER_0_38_203
*1660 FILLER_0_38_215
*1661 FILLER_0_38_223
*1662 FILLER_0_38_24
*1663 FILLER_0_38_240
*1664 FILLER_0_38_251
*1665 FILLER_0_38_261
*1666 FILLER_0_38_267
*1667 FILLER_0_38_275
*1668 FILLER_0_38_289
*1669 FILLER_0_38_29
*1670 FILLER_0_38_7
*1671 FILLER_0_38_85
*1672 FILLER_0_38_91
*1673 FILLER_0_38_95
*1674 FILLER_0_39_102
*1675 FILLER_0_39_110
*1676 FILLER_0_39_113
*1677 FILLER_0_39_152
*1678 FILLER_0_39_160
*1679 FILLER_0_39_164
*1680 FILLER_0_39_169
*1681 FILLER_0_39_173
*1682 FILLER_0_39_19
*1683 FILLER_0_39_198
*1684 FILLER_0_39_245
*1685 FILLER_0_39_274
*1686 FILLER_0_39_281
*1687 FILLER_0_39_3